/*---------------------------------------------------------------------------*\
  =========                 |
  \\      /  F ield         | OpenFOAM: The Open Source CFD Toolbox
   \\    /   O peration     | Website:  https://openfoam.org
    \\  /    A nd           | Version:  12
     \\/     M anipulation  |
\*---------------------------------------------------------------------------*/
Build  : 12-dcff2b94e86e
Exec   : foamRun
Date   : Mar 18 2025
Time   : 13:42:24
Host   : "RAIOU5CGBWM3"
PID    : 2954
I/O    : uncollated
Case   : /home/username/ws/pipe-tube-duct-square-openfoam-simplefoam-v11
nProcs : 1
sigFpe : Enabling floating point exception trapping (FOAM_SIGFPE).
fileModificationChecking : Monitoring run-time modified files using timeStampMaster (fileModificationSkew 10)
allowSystemOperations : Allowing user-supplied system call operations

// * * * * * * * * * * * * * * * * * * * * * * * * * * * * * * * * * * * * * //
Create time

Expanding #calc at line 33 in file "/home/username/ws/pipe-tube-duct-square-openfoam-simplefoam-v11/system/controlDict/functions/velocityProfile/velocityProfile"
Expanding #calc at line 35 in file "/home/username/ws/pipe-tube-duct-square-openfoam-simplefoam-v11/system/controlDict/functions/velocityProfile/velocityProfile"
Expanding #calc at line 36 in file "/home/username/ws/pipe-tube-duct-square-openfoam-simplefoam-v11/system/controlDict/functions/velocityProfile/velocityProfile"
Expanding #calc at line 37 in file "/home/username/ws/pipe-tube-duct-square-openfoam-simplefoam-v11/system/controlDict/functions/velocityProfile/velocityProfile"
Expanding #calc at line 38 in file "/home/username/ws/pipe-tube-duct-square-openfoam-simplefoam-v11/system/controlDict/functions/velocityProfile/velocityProfile"
Expanding #calc at line 40 in file "/home/username/ws/pipe-tube-duct-square-openfoam-simplefoam-v11/system/controlDict/functions/velocityProfile/velocityProfile"
Expanding #calc at line 42 in file "/home/username/ws/pipe-tube-duct-square-openfoam-simplefoam-v11/system/controlDict/functions/velocityProfile/velocityProfile"
Expanding #calc at line 44 in file "/home/username/ws/pipe-tube-duct-square-openfoam-simplefoam-v11/system/controlDict/functions/velocityProfile/velocityProfile"
Expanding #calc at line 46 in file "/home/username/ws/pipe-tube-duct-square-openfoam-simplefoam-v11/system/controlDict/functions/velocityProfile/velocityProfile"
Expanding #calc at line 47 in file "/home/username/ws/pipe-tube-duct-square-openfoam-simplefoam-v11/system/controlDict/functions/velocityProfile/velocityProfile"
Expanding #calc at line 33 in file "/home/username/ws/pipe-tube-duct-square-openfoam-simplefoam-v11/system/controlDict/functions/velocityProfileXY/velocityProfileXY"
Expanding #calc at line 35 in file "/home/username/ws/pipe-tube-duct-square-openfoam-simplefoam-v11/system/controlDict/functions/velocityProfileXY/velocityProfileXY"
Expanding #calc at line 36 in file "/home/username/ws/pipe-tube-duct-square-openfoam-simplefoam-v11/system/controlDict/functions/velocityProfileXY/velocityProfileXY"
Expanding #calc at line 37 in file "/home/username/ws/pipe-tube-duct-square-openfoam-simplefoam-v11/system/controlDict/functions/velocityProfileXY/velocityProfileXY"
Expanding #calc at line 38 in file "/home/username/ws/pipe-tube-duct-square-openfoam-simplefoam-v11/system/controlDict/functions/velocityProfileXY/velocityProfileXY"
Expanding #calc at line 40 in file "/home/username/ws/pipe-tube-duct-square-openfoam-simplefoam-v11/system/controlDict/functions/velocityProfileXY/velocityProfileXY"
Expanding #calc at line 42 in file "/home/username/ws/pipe-tube-duct-square-openfoam-simplefoam-v11/system/controlDict/functions/velocityProfileXY/velocityProfileXY"
Expanding #calc at line 44 in file "/home/username/ws/pipe-tube-duct-square-openfoam-simplefoam-v11/system/controlDict/functions/velocityProfileXY/velocityProfileXY"
Expanding #calc at line 46 in file "/home/username/ws/pipe-tube-duct-square-openfoam-simplefoam-v11/system/controlDict/functions/velocityProfileXY/velocityProfileXY"
Expanding #calc at line 47 in file "/home/username/ws/pipe-tube-duct-square-openfoam-simplefoam-v11/system/controlDict/functions/velocityProfileXY/velocityProfileXY"
Expanding #calc at line 33 in file "/home/username/ws/pipe-tube-duct-square-openfoam-simplefoam-v11/system/controlDict/functions/velocityProfileInlet/velocityProfileInlet"
Expanding #calc at line 35 in file "/home/username/ws/pipe-tube-duct-square-openfoam-simplefoam-v11/system/controlDict/functions/velocityProfileInlet/velocityProfileInlet"
Expanding #calc at line 36 in file "/home/username/ws/pipe-tube-duct-square-openfoam-simplefoam-v11/system/controlDict/functions/velocityProfileInlet/velocityProfileInlet"
Expanding #calc at line 37 in file "/home/username/ws/pipe-tube-duct-square-openfoam-simplefoam-v11/system/controlDict/functions/velocityProfileInlet/velocityProfileInlet"
Expanding #calc at line 38 in file "/home/username/ws/pipe-tube-duct-square-openfoam-simplefoam-v11/system/controlDict/functions/velocityProfileInlet/velocityProfileInlet"
Expanding #calc at line 40 in file "/home/username/ws/pipe-tube-duct-square-openfoam-simplefoam-v11/system/controlDict/functions/velocityProfileInlet/velocityProfileInlet"
Expanding #calc at line 42 in file "/home/username/ws/pipe-tube-duct-square-openfoam-simplefoam-v11/system/controlDict/functions/velocityProfileInlet/velocityProfileInlet"
Expanding #calc at line 44 in file "/home/username/ws/pipe-tube-duct-square-openfoam-simplefoam-v11/system/controlDict/functions/velocityProfileInlet/velocityProfileInlet"
Expanding #calc at line 46 in file "/home/username/ws/pipe-tube-duct-square-openfoam-simplefoam-v11/system/controlDict/functions/velocityProfileInlet/velocityProfileInlet"
Expanding #calc at line 47 in file "/home/username/ws/pipe-tube-duct-square-openfoam-simplefoam-v11/system/controlDict/functions/velocityProfileInlet/velocityProfileInlet"
Expanding #calc at line 33 in file "/home/username/ws/pipe-tube-duct-square-openfoam-simplefoam-v11/system/controlDict/functions/pressureDrop/pressureDrop"
Expanding #calc at line 35 in file "/home/username/ws/pipe-tube-duct-square-openfoam-simplefoam-v11/system/controlDict/functions/pressureDrop/pressureDrop"
Expanding #calc at line 36 in file "/home/username/ws/pipe-tube-duct-square-openfoam-simplefoam-v11/system/controlDict/functions/pressureDrop/pressureDrop"
Expanding #calc at line 37 in file "/home/username/ws/pipe-tube-duct-square-openfoam-simplefoam-v11/system/controlDict/functions/pressureDrop/pressureDrop"
Expanding #calc at line 38 in file "/home/username/ws/pipe-tube-duct-square-openfoam-simplefoam-v11/system/controlDict/functions/pressureDrop/pressureDrop"
Expanding #calc at line 40 in file "/home/username/ws/pipe-tube-duct-square-openfoam-simplefoam-v11/system/controlDict/functions/pressureDrop/pressureDrop"
Expanding #calc at line 42 in file "/home/username/ws/pipe-tube-duct-square-openfoam-simplefoam-v11/system/controlDict/functions/pressureDrop/pressureDrop"
Expanding #calc at line 44 in file "/home/username/ws/pipe-tube-duct-square-openfoam-simplefoam-v11/system/controlDict/functions/pressureDrop/pressureDrop"
Expanding #calc at line 46 in file "/home/username/ws/pipe-tube-duct-square-openfoam-simplefoam-v11/system/controlDict/functions/pressureDrop/pressureDrop"
Expanding #calc at line 47 in file "/home/username/ws/pipe-tube-duct-square-openfoam-simplefoam-v11/system/controlDict/functions/pressureDrop/pressureDrop"
Expanding #calc at line 33 in file "/home/username/ws/pipe-tube-duct-square-openfoam-simplefoam-v11/system/controlDict/functions/yPlusz8/yPlusz8"
Expanding #calc at line 35 in file "/home/username/ws/pipe-tube-duct-square-openfoam-simplefoam-v11/system/controlDict/functions/yPlusz8/yPlusz8"
Expanding #calc at line 36 in file "/home/username/ws/pipe-tube-duct-square-openfoam-simplefoam-v11/system/controlDict/functions/yPlusz8/yPlusz8"
Expanding #calc at line 37 in file "/home/username/ws/pipe-tube-duct-square-openfoam-simplefoam-v11/system/controlDict/functions/yPlusz8/yPlusz8"
Expanding #calc at line 38 in file "/home/username/ws/pipe-tube-duct-square-openfoam-simplefoam-v11/system/controlDict/functions/yPlusz8/yPlusz8"
Expanding #calc at line 40 in file "/home/username/ws/pipe-tube-duct-square-openfoam-simplefoam-v11/system/controlDict/functions/yPlusz8/yPlusz8"
Expanding #calc at line 42 in file "/home/username/ws/pipe-tube-duct-square-openfoam-simplefoam-v11/system/controlDict/functions/yPlusz8/yPlusz8"
Expanding #calc at line 44 in file "/home/username/ws/pipe-tube-duct-square-openfoam-simplefoam-v11/system/controlDict/functions/yPlusz8/yPlusz8"
Expanding #calc at line 46 in file "/home/username/ws/pipe-tube-duct-square-openfoam-simplefoam-v11/system/controlDict/functions/yPlusz8/yPlusz8"
Expanding #calc at line 47 in file "/home/username/ws/pipe-tube-duct-square-openfoam-simplefoam-v11/system/controlDict/functions/yPlusz8/yPlusz8"
Create mesh for time = 0

Selecting solver incompressibleFluid
--> FOAM Warning : 
    From function const Foam::HashTable<Foam::List<int>, Foam::word>& Foam::polyBoundaryMesh::groupPatchIndices() const
    in file meshes/polyMesh/polyBoundaryMesh/polyBoundaryMesh.C at line 506
    Removing patchGroup 'wall' which clashes with patch 2 of the same name.
Selecting viscosity model constant
Selecting turbulence model type laminar
Selecting laminar stress model Stokes
No MRF models present


SIMPLE: No convergence criteria found


SIMPLE: Operating solver in steady-state mode with 1 outer corrector
SIMPLE: Operating solver in SIMPLE mode



Starting time loop

Reading set description:
    line

Reading set description:
    line

Reading set description:
    line

Reading set description:
    line

surfaceFieldValue flowRate:
    total faces  = 100
    total area   = 0.01


Reading set description:
    line

surfaceFieldValue yPlusAvgWall:
    total faces  = 4000
    total area   = 4


Time = 1s

smoothSolver:  Solving for Ux, Initial residual = 1, Final residual = 0.0831095, No Iterations 6
smoothSolver:  Solving for Uy, Initial residual = 1, Final residual = 0.0831095, No Iterations 6
smoothSolver:  Solving for Uz, Initial residual = 1, Final residual = 0.0997679, No Iterations 8
GAMG:  Solving for p, Initial residual = 1, Final residual = 0.00978184, No Iterations 202
time step continuity errors : sum local = 0.0336375, global = -0.00546804, cumulative = -0.00546804
ExecutionTime = 0.520316 s  ClockTime = 1 s

Time = 2s

smoothSolver:  Solving for Ux, Initial residual = 0.780585, Final residual = 0.0467436, No Iterations 4
smoothSolver:  Solving for Uy, Initial residual = 0.780614, Final residual = 0.0467514, No Iterations 4
smoothSolver:  Solving for Uz, Initial residual = 0.574074, Final residual = 0.0443771, No Iterations 3
GAMG:  Solving for p, Initial residual = 0.0558436, Final residual = 0.000550468, No Iterations 158
time step continuity errors : sum local = 0.0135628, global = 0.00230388, cumulative = -0.00316416
ExecutionTime = 0.603314 s  ClockTime = 1 s

Time = 3s

smoothSolver:  Solving for Ux, Initial residual = 0.461838, Final residual = 0.0426351, No Iterations 4
smoothSolver:  Solving for Uy, Initial residual = 0.461806, Final residual = 0.0426372, No Iterations 4
smoothSolver:  Solving for Uz, Initial residual = 0.247557, Final residual = 0.0233103, No Iterations 3
GAMG:  Solving for p, Initial residual = 0.122892, Final residual = 0.00118015, No Iterations 47
time step continuity errors : sum local = 0.0181745, global = 0.00259113, cumulative = -0.000573028
ExecutionTime = 0.634796 s  ClockTime = 1 s

Time = 4s

smoothSolver:  Solving for Ux, Initial residual = 0.460157, Final residual = 0.0331291, No Iterations 3
smoothSolver:  Solving for Uy, Initial residual = 0.460084, Final residual = 0.0331384, No Iterations 3
smoothSolver:  Solving for Uz, Initial residual = 0.0953203, Final residual = 0.00935739, No Iterations 3
GAMG:  Solving for p, Initial residual = 0.0806686, Final residual = 0.000799463, No Iterations 73
time step continuity errors : sum local = 0.0128954, global = 0.00201528, cumulative = 0.00144225
ExecutionTime = 0.675626 s  ClockTime = 1 s

Time = 5s

smoothSolver:  Solving for Ux, Initial residual = 0.561791, Final residual = 0.0455146, No Iterations 3
smoothSolver:  Solving for Uy, Initial residual = 0.561763, Final residual = 0.0455377, No Iterations 3
smoothSolver:  Solving for Uz, Initial residual = 0.0656089, Final residual = 0.00351378, No Iterations 3
GAMG:  Solving for p, Initial residual = 0.087681, Final residual = 0.00083091, No Iterations 38
time step continuity errors : sum local = 0.0124316, global = 0.00214885, cumulative = 0.0035911
ExecutionTime = 0.700851 s  ClockTime = 1 s

Time = 6s

smoothSolver:  Solving for Ux, Initial residual = 0.622742, Final residual = 0.0469075, No Iterations 3
smoothSolver:  Solving for Uy, Initial residual = 0.6229, Final residual = 0.0469388, No Iterations 3
smoothSolver:  Solving for Uz, Initial residual = 0.031857, Final residual = 0.00157164, No Iterations 3
GAMG:  Solving for p, Initial residual = 0.0632094, Final residual = 0.000620965, No Iterations 42
time step continuity errors : sum local = 0.00883898, global = 0.00141211, cumulative = 0.00500321
ExecutionTime = 0.728691 s  ClockTime = 1 s

Time = 7s

smoothSolver:  Solving for Ux, Initial residual = 0.632118, Final residual = 0.0365615, No Iterations 3
smoothSolver:  Solving for Uy, Initial residual = 0.632402, Final residual = 0.0365903, No Iterations 3
smoothSolver:  Solving for Uz, Initial residual = 0.0173507, Final residual = 0.000996884, No Iterations 3
GAMG:  Solving for p, Initial residual = 0.0467103, Final residual = 0.000449153, No Iterations 38
time step continuity errors : sum local = 0.00621386, global = 0.000826027, cumulative = 0.00582924
ExecutionTime = 0.754199 s  ClockTime = 1 s

Time = 8s

smoothSolver:  Solving for Ux, Initial residual = 0.633598, Final residual = 0.0291572, No Iterations 3
smoothSolver:  Solving for Uy, Initial residual = 0.633822, Final residual = 0.0291776, No Iterations 3
smoothSolver:  Solving for Uz, Initial residual = 0.0100967, Final residual = 0.000645409, No Iterations 3
GAMG:  Solving for p, Initial residual = 0.0374152, Final residual = 0.000361582, No Iterations 32
time step continuity errors : sum local = 0.00489833, global = 0.000538688, cumulative = 0.00636793
ExecutionTime = 0.776835 s  ClockTime = 1 s

Time = 9s

smoothSolver:  Solving for Ux, Initial residual = 0.63697, Final residual = 0.0626364, No Iterations 2
smoothSolver:  Solving for Uy, Initial residual = 0.637241, Final residual = 0.0626721, No Iterations 2
smoothSolver:  Solving for Uz, Initial residual = 0.00651726, Final residual = 0.000421969, No Iterations 3
GAMG:  Solving for p, Initial residual = 0.0308559, Final residual = 0.000286487, No Iterations 28
time step continuity errors : sum local = 0.0038003, global = 0.000389725, cumulative = 0.00675765
ExecutionTime = 0.797323 s  ClockTime = 1 s

Time = 10s

smoothSolver:  Solving for Ux, Initial residual = 0.651695, Final residual = 0.0562108, No Iterations 2
smoothSolver:  Solving for Uy, Initial residual = 0.651973, Final residual = 0.0562399, No Iterations 2
smoothSolver:  Solving for Uz, Initial residual = 0.00456984, Final residual = 0.000287651, No Iterations 3
GAMG:  Solving for p, Initial residual = 0.0259951, Final residual = 0.000257388, No Iterations 22
time step continuity errors : sum local = 0.00334431, global = 0.000293976, cumulative = 0.00705163
ExecutionTime = 0.814871 s  ClockTime = 1 s

Time = 11s

smoothSolver:  Solving for Ux, Initial residual = 0.667037, Final residual = 0.05042, No Iterations 2
smoothSolver:  Solving for Uy, Initial residual = 0.667294, Final residual = 0.050444, No Iterations 2
smoothSolver:  Solving for Uz, Initial residual = 0.00328635, Final residual = 0.000198969, No Iterations 3
GAMG:  Solving for p, Initial residual = 0.0221623, Final residual = 0.000217207, No Iterations 20
time step continuity errors : sum local = 0.002775, global = 0.000237454, cumulative = 0.00728908
ExecutionTime = 0.831432 s  ClockTime = 1 s

Time = 12s

smoothSolver:  Solving for Ux, Initial residual = 0.672985, Final residual = 0.0451152, No Iterations 2
smoothSolver:  Solving for Uy, Initial residual = 0.673216, Final residual = 0.0451356, No Iterations 2
smoothSolver:  Solving for Uz, Initial residual = 0.0024197, Final residual = 0.000138955, No Iterations 3
GAMG:  Solving for p, Initial residual = 0.0190413, Final residual = 0.00018018, No Iterations 16
time step continuity errors : sum local = 0.00226893, global = 0.000213753, cumulative = 0.00750283
ExecutionTime = 0.846136 s  ClockTime = 1 s

Time = 13s

smoothSolver:  Solving for Ux, Initial residual = 0.676167, Final residual = 0.0409051, No Iterations 2
smoothSolver:  Solving for Uy, Initial residual = 0.676303, Final residual = 0.0409214, No Iterations 2
smoothSolver:  Solving for Uz, Initial residual = 0.00180142, Final residual = 9.73348e-05, No Iterations 3
GAMG:  Solving for p, Initial residual = 0.0166106, Final residual = 0.000156177, No Iterations 12
time step continuity errors : sum local = 0.00194202, global = 0.000244103, cumulative = 0.00774694
ExecutionTime = 0.859181 s  ClockTime = 1 s

Time = 14s

smoothSolver:  Solving for Ux, Initial residual = 0.677752, Final residual = 0.0374118, No Iterations 2
smoothSolver:  Solving for Uy, Initial residual = 0.677779, Final residual = 0.0374229, No Iterations 2
smoothSolver:  Solving for Uz, Initial residual = 0.0013506, Final residual = 6.84176e-05, No Iterations 3
GAMG:  Solving for p, Initial residual = 0.0146177, Final residual = 0.000141708, No Iterations 10
time step continuity errors : sum local = 0.00174092, global = 0.000274077, cumulative = 0.00802101
ExecutionTime = 0.871365 s  ClockTime = 1 s

Time = 15s

smoothSolver:  Solving for Ux, Initial residual = 0.676269, Final residual = 0.034616, No Iterations 2
smoothSolver:  Solving for Uy, Initial residual = 0.676291, Final residual = 0.0346236, No Iterations 2
smoothSolver:  Solving for Uz, Initial residual = 0.00103022, Final residual = 4.85012e-05, No Iterations 3
GAMG:  Solving for p, Initial residual = 0.0129186, Final residual = 0.000120161, No Iterations 10
time step continuity errors : sum local = 0.0014589, global = 0.000266765, cumulative = 0.00828778
ExecutionTime = 0.884374 s  ClockTime = 1 s

Time = 16s

smoothSolver:  Solving for Ux, Initial residual = 0.672934, Final residual = 0.0323075, No Iterations 2
smoothSolver:  Solving for Uy, Initial residual = 0.672959, Final residual = 0.0323149, No Iterations 2
smoothSolver:  Solving for Uz, Initial residual = 0.000820417, Final residual = 7.83403e-05, No Iterations 2
GAMG:  Solving for p, Initial residual = 0.0115575, Final residual = 0.000115488, No Iterations 9
time step continuity errors : sum local = 0.00138687, global = -0.000287542, cumulative = 0.00800024
ExecutionTime = 0.89667 s  ClockTime = 1 s

Time = 17s

smoothSolver:  Solving for Ux, Initial residual = 0.667093, Final residual = 0.0302978, No Iterations 2
smoothSolver:  Solving for Uy, Initial residual = 0.666976, Final residual = 0.0303006, No Iterations 2
smoothSolver:  Solving for Uz, Initial residual = 0.000712008, Final residual = 6.13004e-05, No Iterations 2
GAMG:  Solving for p, Initial residual = 0.010329, Final residual = 0.00010017, No Iterations 9
time step continuity errors : sum local = 0.00119577, global = -0.000246037, cumulative = 0.0077542
ExecutionTime = 0.908405 s  ClockTime = 1 s

Time = 18s

smoothSolver:  Solving for Ux, Initial residual = 0.660737, Final residual = 0.0284195, No Iterations 2
smoothSolver:  Solving for Uy, Initial residual = 0.660529, Final residual = 0.0284201, No Iterations 2
smoothSolver:  Solving for Uz, Initial residual = 0.000572545, Final residual = 4.78019e-05, No Iterations 2
GAMG:  Solving for p, Initial residual = 0.00928844, Final residual = 8.43594e-05, No Iterations 9
time step continuity errors : sum local = 0.000997594, global = -0.000178163, cumulative = 0.00757604
ExecutionTime = 0.920238 s  ClockTime = 1 s

Time = 19s

smoothSolver:  Solving for Ux, Initial residual = 0.653759, Final residual = 0.0266972, No Iterations 2
smoothSolver:  Solving for Uy, Initial residual = 0.653525, Final residual = 0.0266989, No Iterations 2
smoothSolver:  Solving for Uz, Initial residual = 0.000474204, Final residual = 3.79625e-05, No Iterations 2
GAMG:  Solving for p, Initial residual = 0.00839104, Final residual = 7.88989e-05, No Iterations 7
time step continuity errors : sum local = 0.000924438, global = -0.000141413, cumulative = 0.00743462
ExecutionTime = 0.930462 s  ClockTime = 1 s

Time = 20s

smoothSolver:  Solving for Ux, Initial residual = 0.648704, Final residual = 0.0252322, No Iterations 2
smoothSolver:  Solving for Uy, Initial residual = 0.648452, Final residual = 0.0252339, No Iterations 2
smoothSolver:  Solving for Uz, Initial residual = 0.000381241, Final residual = 3.05886e-05, No Iterations 2
GAMG:  Solving for p, Initial residual = 0.0076104, Final residual = 6.61867e-05, No Iterations 7
time step continuity errors : sum local = 0.000768975, global = -0.000121733, cumulative = 0.00731289
ExecutionTime = 0.94114 s  ClockTime = 1 s

Time = 21s

smoothSolver:  Solving for Ux, Initial residual = 0.640403, Final residual = 0.0238688, No Iterations 2
smoothSolver:  Solving for Uy, Initial residual = 0.64016, Final residual = 0.0238714, No Iterations 2
smoothSolver:  Solving for Uz, Initial residual = 0.000321008, Final residual = 2.55518e-05, No Iterations 2
GAMG:  Solving for p, Initial residual = 0.00690822, Final residual = 5.54412e-05, No Iterations 7
time step continuity errors : sum local = 0.000639549, global = -0.000108634, cumulative = 0.00720426
ExecutionTime = 0.951316 s  ClockTime = 1 s

Time = 22s

smoothSolver:  Solving for Ux, Initial residual = 0.628339, Final residual = 0.0226787, No Iterations 2
smoothSolver:  Solving for Uy, Initial residual = 0.628116, Final residual = 0.0226817, No Iterations 2
smoothSolver:  Solving for Uz, Initial residual = 0.00026924, Final residual = 2.1628e-05, No Iterations 2
GAMG:  Solving for p, Initial residual = 0.00624014, Final residual = 6.18101e-05, No Iterations 5
time step continuity errors : sum local = 0.000708571, global = -0.000146982, cumulative = 0.00705727
ExecutionTime = 0.960661 s  ClockTime = 1 s

Time = 23s

smoothSolver:  Solving for Ux, Initial residual = 0.613333, Final residual = 0.0216308, No Iterations 2
smoothSolver:  Solving for Uy, Initial residual = 0.612884, Final residual = 0.0216252, No Iterations 2
smoothSolver:  Solving for Uz, Initial residual = 0.000218501, Final residual = 1.805e-05, No Iterations 2
GAMG:  Solving for p, Initial residual = 0.00567061, Final residual = 5.0923e-05, No Iterations 6
time step continuity errors : sum local = 0.000580318, global = 7.71915e-05, cumulative = 0.00713447
ExecutionTime = 0.970566 s  ClockTime = 1 s

Time = 24s

smoothSolver:  Solving for Ux, Initial residual = 0.597797, Final residual = 0.0206803, No Iterations 2
smoothSolver:  Solving for Uy, Initial residual = 0.597534, Final residual = 0.0206817, No Iterations 2
smoothSolver:  Solving for Uz, Initial residual = 0.000214635, Final residual = 1.60017e-05, No Iterations 2
GAMG:  Solving for p, Initial residual = 0.00518349, Final residual = 4.40724e-05, No Iterations 6
time step continuity errors : sum local = 0.00049842, global = -3.32648e-05, cumulative = 0.0071012
ExecutionTime = 0.98013 s  ClockTime = 1 s

Time = 25s

smoothSolver:  Solving for Ux, Initial residual = 0.582869, Final residual = 0.0197423, No Iterations 2
smoothSolver:  Solving for Uy, Initial residual = 0.582679, Final residual = 0.0197436, No Iterations 2
smoothSolver:  Solving for Uz, Initial residual = 0.000181638, Final residual = 1.32469e-05, No Iterations 2
GAMG:  Solving for p, Initial residual = 0.00470343, Final residual = 4.42142e-05, No Iterations 5
time step continuity errors : sum local = 0.000498391, global = -9.13318e-05, cumulative = 0.00700987
ExecutionTime = 0.989513 s  ClockTime = 1 s

Time = 26s

smoothSolver:  Solving for Ux, Initial residual = 0.568984, Final residual = 0.0188755, No Iterations 2
smoothSolver:  Solving for Uy, Initial residual = 0.568572, Final residual = 0.0188692, No Iterations 2
smoothSolver:  Solving for Uz, Initial residual = 0.000135652, Final residual = 1.04567e-05, No Iterations 2
GAMG:  Solving for p, Initial residual = 0.00426934, Final residual = 3.81485e-05, No Iterations 6
time step continuity errors : sum local = 0.000427937, global = 4.931e-05, cumulative = 0.00705918
ExecutionTime = 0.999104 s  ClockTime = 1 s

Time = 27s

smoothSolver:  Solving for Ux, Initial residual = 0.557621, Final residual = 0.0180394, No Iterations 2
smoothSolver:  Solving for Uy, Initial residual = 0.557422, Final residual = 0.0180403, No Iterations 2
smoothSolver:  Solving for Uz, Initial residual = 0.000128956, Final residual = 8.01753e-06, No Iterations 2
GAMG:  Solving for p, Initial residual = 0.00387417, Final residual = 3.76858e-05, No Iterations 4
time step continuity errors : sum local = 0.000420313, global = -2.46106e-05, cumulative = 0.00703457
ExecutionTime = 1.00804 s  ClockTime = 1 s

Time = 28s

smoothSolver:  Solving for Ux, Initial residual = 0.550499, Final residual = 0.0171128, No Iterations 2
smoothSolver:  Solving for Uy, Initial residual = 0.549474, Final residual = 0.0170921, No Iterations 2
smoothSolver:  Solving for Uz, Initial residual = 0.000146366, Final residual = 1.19523e-05, No Iterations 2
GAMG:  Solving for p, Initial residual = 0.00351354, Final residual = 3.02539e-05, No Iterations 4
time step continuity errors : sum local = 0.000336487, global = -4.50993e-05, cumulative = 0.00698947
ExecutionTime = 1.0171 s  ClockTime = 1 s

Time = 29s

smoothSolver:  Solving for Ux, Initial residual = 0.537735, Final residual = 0.0162604, No Iterations 2
smoothSolver:  Solving for Uy, Initial residual = 0.536611, Final residual = 0.0162226, No Iterations 2
smoothSolver:  Solving for Uz, Initial residual = 0.000114907, Final residual = 7.97177e-06, No Iterations 2
GAMG:  Solving for p, Initial residual = 0.00321293, Final residual = 2.78823e-05, No Iterations 4
time step continuity errors : sum local = 0.000308896, global = 1.15882e-05, cumulative = 0.00700106
ExecutionTime = 1.02632 s  ClockTime = 1 s

Time = 30s

smoothSolver:  Solving for Ux, Initial residual = 0.525988, Final residual = 0.0154024, No Iterations 2
smoothSolver:  Solving for Uy, Initial residual = 0.524796, Final residual = 0.0153627, No Iterations 2
smoothSolver:  Solving for Uz, Initial residual = 7.93094e-05, Final residual = 5.18962e-06, No Iterations 2
GAMG:  Solving for p, Initial residual = 0.00294262, Final residual = 2.82966e-05, No Iterations 4
time step continuity errors : sum local = 0.000312283, global = -1.56493e-05, cumulative = 0.00698541
ExecutionTime = 1.0369 s  ClockTime = 1 s

Time = 31s

smoothSolver:  Solving for Ux, Initial residual = 0.510652, Final residual = 0.014469, No Iterations 2
smoothSolver:  Solving for Uy, Initial residual = 0.509605, Final residual = 0.0144354, No Iterations 2
smoothSolver:  Solving for Uz, Initial residual = 7.14828e-05, Final residual = 4.13432e-06, No Iterations 2
GAMG:  Solving for p, Initial residual = 0.00268511, Final residual = 1.67607e-05, No Iterations 4
time step continuity errors : sum local = 0.00018448, global = -1.32927e-05, cumulative = 0.00697212
ExecutionTime = 1.04579 s  ClockTime = 1 s

Time = 32s

smoothSolver:  Solving for Ux, Initial residual = 0.494517, Final residual = 0.0135804, No Iterations 2
smoothSolver:  Solving for Uy, Initial residual = 0.493588, Final residual = 0.0135531, No Iterations 2
smoothSolver:  Solving for Uz, Initial residual = 5.86092e-05, Final residual = 3.51429e-06, No Iterations 2
GAMG:  Solving for p, Initial residual = 0.0024438, Final residual = 1.45238e-05, No Iterations 4
time step continuity errors : sum local = 0.000159443, global = 3.07462e-05, cumulative = 0.00700286
ExecutionTime = 1.0556 s  ClockTime = 1 s

Time = 33s

smoothSolver:  Solving for Ux, Initial residual = 0.476712, Final residual = 0.012715, No Iterations 2
smoothSolver:  Solving for Uy, Initial residual = 0.475996, Final residual = 0.0126999, No Iterations 2
smoothSolver:  Solving for Uz, Initial residual = 5.37765e-05, Final residual = 3.22336e-06, No Iterations 2
GAMG:  Solving for p, Initial residual = 0.0022299, Final residual = 2.1085e-05, No Iterations 3
time step continuity errors : sum local = 0.000230821, global = 1.38569e-05, cumulative = 0.00701672
ExecutionTime = 1.06401 s  ClockTime = 1 s

Time = 34s

smoothSolver:  Solving for Ux, Initial residual = 0.458621, Final residual = 0.0119285, No Iterations 2
smoothSolver:  Solving for Uy, Initial residual = 0.455131, Final residual = 0.0118236, No Iterations 2
smoothSolver:  Solving for Uz, Initial residual = 4.53179e-05, Final residual = 2.74813e-06, No Iterations 2
GAMG:  Solving for p, Initial residual = 0.00203136, Final residual = 1.18879e-05, No Iterations 4
time step continuity errors : sum local = 0.00012989, global = -2.31721e-05, cumulative = 0.00699355
ExecutionTime = 1.0729 s  ClockTime = 1 s

Time = 35s

smoothSolver:  Solving for Ux, Initial residual = 0.440129, Final residual = 0.0111899, No Iterations 2
smoothSolver:  Solving for Uy, Initial residual = 0.439042, Final residual = 0.0111523, No Iterations 2
smoothSolver:  Solving for Uz, Initial residual = 4.64209e-05, Final residual = 2.50382e-06, No Iterations 2
GAMG:  Solving for p, Initial residual = 0.00185829, Final residual = 1.69242e-05, No Iterations 3
time step continuity errors : sum local = 0.000184605, global = -8.29371e-06, cumulative = 0.00698525
ExecutionTime = 1.08148 s  ClockTime = 1 s

Time = 36s

smoothSolver:  Solving for Ux, Initial residual = 0.421868, Final residual = 0.0105191, No Iterations 2
smoothSolver:  Solving for Uy, Initial residual = 0.41899, Final residual = 0.0104435, No Iterations 2
smoothSolver:  Solving for Uz, Initial residual = 3.56099e-05, Final residual = 2.07984e-06, No Iterations 2
GAMG:  Solving for p, Initial residual = 0.00169019, Final residual = 1.68727e-05, No Iterations 3
time step continuity errors : sum local = 0.000183707, global = 3.37447e-06, cumulative = 0.00698863
ExecutionTime = 1.09048 s  ClockTime = 1 s

Time = 37s

smoothSolver:  Solving for Ux, Initial residual = 0.403426, Final residual = 0.00984036, No Iterations 2
smoothSolver:  Solving for Uy, Initial residual = 0.400234, Final residual = 0.00975393, No Iterations 2
smoothSolver:  Solving for Uz, Initial residual = 3.37318e-05, Final residual = 1.79806e-06, No Iterations 2
GAMG:  Solving for p, Initial residual = 0.00153551, Final residual = 7.66601e-06, No Iterations 4
time step continuity errors : sum local = 8.33197e-05, global = -7.03083e-06, cumulative = 0.0069816
ExecutionTime = 1.10003 s  ClockTime = 1 s

Time = 38s

smoothSolver:  Solving for Ux, Initial residual = 0.386232, Final residual = 0.00917708, No Iterations 2
smoothSolver:  Solving for Uy, Initial residual = 0.385849, Final residual = 0.00917608, No Iterations 2
smoothSolver:  Solving for Uz, Initial residual = 3.1981e-05, Final residual = 1.46515e-06, No Iterations 2
GAMG:  Solving for p, Initial residual = 0.0013982, Final residual = 7.11378e-06, No Iterations 4
time step continuity errors : sum local = 7.72032e-05, global = -7.35394e-06, cumulative = 0.00697424
ExecutionTime = 1.10963 s  ClockTime = 1 s

Time = 39s

smoothSolver:  Solving for Ux, Initial residual = 0.368288, Final residual = 0.00852796, No Iterations 2
smoothSolver:  Solving for Uy, Initial residual = 0.368847, Final residual = 0.00856568, No Iterations 2
smoothSolver:  Solving for Uz, Initial residual = 2.53151e-05, Final residual = 1.16356e-06, No Iterations 2
GAMG:  Solving for p, Initial residual = 0.00127078, Final residual = 6.02318e-06, No Iterations 4
time step continuity errors : sum local = 6.5275e-05, global = -8.19252e-06, cumulative = 0.00696605
ExecutionTime = 1.11939 s  ClockTime = 1 s

Time = 40s

smoothSolver:  Solving for Ux, Initial residual = 0.350084, Final residual = 0.00793072, No Iterations 2
smoothSolver:  Solving for Uy, Initial residual = 0.350729, Final residual = 0.00796918, No Iterations 2
smoothSolver:  Solving for Uz, Initial residual = 2.27725e-05, Final residual = 1.00544e-06, No Iterations 2
GAMG:  Solving for p, Initial residual = 0.00115936, Final residual = 1.01351e-05, No Iterations 3
time step continuity errors : sum local = 0.000109699, global = 1.97007e-06, cumulative = 0.00696802
ExecutionTime = 1.1284 s  ClockTime = 1 s

Time = 41s

smoothSolver:  Solving for Ux, Initial residual = 0.33204, Final residual = 0.00736657, No Iterations 2
smoothSolver:  Solving for Uy, Initial residual = 0.330839, Final residual = 0.00735184, No Iterations 2
smoothSolver:  Solving for Uz, Initial residual = 2.19608e-05, Final residual = 9.5763e-07, No Iterations 2
GAMG:  Solving for p, Initial residual = 0.00106111, Final residual = 9.14566e-06, No Iterations 3
time step continuity errors : sum local = 9.88693e-05, global = 6.05215e-06, cumulative = 0.00697407
ExecutionTime = 1.13728 s  ClockTime = 1 s

Time = 42s

smoothSolver:  Solving for Ux, Initial residual = 0.313928, Final residual = 0.00682914, No Iterations 2
smoothSolver:  Solving for Uy, Initial residual = 0.312573, Final residual = 0.00679753, No Iterations 2
smoothSolver:  Solving for Uz, Initial residual = 1.9881e-05, Final residual = 8.36281e-07, No Iterations 2
GAMG:  Solving for p, Initial residual = 0.000974725, Final residual = 8.0966e-06, No Iterations 3
time step continuity errors : sum local = 8.74257e-05, global = 4.84288e-06, cumulative = 0.00697891
ExecutionTime = 1.14574 s  ClockTime = 1 s

Time = 43s

smoothSolver:  Solving for Ux, Initial residual = 0.295719, Final residual = 0.00631848, No Iterations 2
smoothSolver:  Solving for Uy, Initial residual = 0.294787, Final residual = 0.00629766, No Iterations 2
smoothSolver:  Solving for Uz, Initial residual = 1.76953e-05, Final residual = 7.23441e-07, No Iterations 2
GAMG:  Solving for p, Initial residual = 0.000894185, Final residual = 7.34104e-06, No Iterations 3
time step continuity errors : sum local = 7.91879e-05, global = 3.37968e-06, cumulative = 0.00698229
ExecutionTime = 1.15529 s  ClockTime = 1 s

Time = 44s

smoothSolver:  Solving for Ux, Initial residual = 0.278152, Final residual = 0.00585078, No Iterations 2
smoothSolver:  Solving for Uy, Initial residual = 0.277593, Final residual = 0.00584207, No Iterations 2
smoothSolver:  Solving for Uz, Initial residual = 1.59334e-05, Final residual = 6.33095e-07, No Iterations 2
GAMG:  Solving for p, Initial residual = 0.000820946, Final residual = 6.56314e-06, No Iterations 3
time step continuity errors : sum local = 7.07316e-05, global = 1.90538e-06, cumulative = 0.0069842
ExecutionTime = 1.16425 s  ClockTime = 1 s

Time = 45s

smoothSolver:  Solving for Ux, Initial residual = 0.26108, Final residual = 0.00543446, No Iterations 2
smoothSolver:  Solving for Uy, Initial residual = 0.260783, Final residual = 0.00543275, No Iterations 2
smoothSolver:  Solving for Uz, Initial residual = 1.4242e-05, Final residual = 5.50695e-07, No Iterations 2
GAMG:  Solving for p, Initial residual = 0.000755128, Final residual = 5.76695e-06, No Iterations 3
time step continuity errors : sum local = 6.2098e-05, global = 5.78596e-07, cumulative = 0.00698478
ExecutionTime = 1.17321 s  ClockTime = 1 s

Time = 46s

smoothSolver:  Solving for Ux, Initial residual = 0.244477, Final residual = 0.00505385, No Iterations 2
smoothSolver:  Solving for Uy, Initial residual = 0.24448, Final residual = 0.00506001, No Iterations 2
smoothSolver:  Solving for Uz, Initial residual = 1.28871e-05, Final residual = 4.83739e-07, No Iterations 2
GAMG:  Solving for p, Initial residual = 0.000693635, Final residual = 5.06471e-06, No Iterations 3
time step continuity errors : sum local = 5.44919e-05, global = -3.4146e-07, cumulative = 0.00698444
ExecutionTime = 1.18169 s  ClockTime = 1 s

Time = 47s

smoothSolver:  Solving for Ux, Initial residual = 0.228394, Final residual = 0.00469722, No Iterations 2
smoothSolver:  Solving for Uy, Initial residual = 0.228594, Final residual = 0.00471014, No Iterations 2
smoothSolver:  Solving for Uz, Initial residual = 1.16136e-05, Final residual = 4.29671e-07, No Iterations 2
GAMG:  Solving for p, Initial residual = 0.000636527, Final residual = 4.58552e-06, No Iterations 3
time step continuity errors : sum local = 4.92984e-05, global = -8.43623e-07, cumulative = 0.00698359
ExecutionTime = 1.1901 s  ClockTime = 1 s

Time = 48s

smoothSolver:  Solving for Ux, Initial residual = 0.21336, Final residual = 0.00435549, No Iterations 2
smoothSolver:  Solving for Uy, Initial residual = 0.213717, Final residual = 0.00437251, No Iterations 2
smoothSolver:  Solving for Uz, Initial residual = 1.04489e-05, Final residual = 3.834e-07, No Iterations 2
GAMG:  Solving for p, Initial residual = 0.000584022, Final residual = 4.33008e-06, No Iterations 3
time step continuity errors : sum local = 4.65187e-05, global = 8.12446e-07, cumulative = 0.00698441
ExecutionTime = 1.19992 s  ClockTime = 1 s

Time = 49s

smoothSolver:  Solving for Ux, Initial residual = 0.199526, Final residual = 0.00404059, No Iterations 2
smoothSolver:  Solving for Uy, Initial residual = 0.19992, Final residual = 0.0040586, No Iterations 2
smoothSolver:  Solving for Uz, Initial residual = 9.41495e-06, Final residual = 3.41297e-07, No Iterations 2
GAMG:  Solving for p, Initial residual = 0.000537171, Final residual = 3.93224e-06, No Iterations 3
time step continuity errors : sum local = 4.2216e-05, global = 1.23292e-07, cumulative = 0.00698453
ExecutionTime = 1.20979 s  ClockTime = 1 s

Time = 50s

smoothSolver:  Solving for Ux, Initial residual = 0.18673, Final residual = 0.00374157, No Iterations 2
smoothSolver:  Solving for Uy, Initial residual = 0.187192, Final residual = 0.00376165, No Iterations 2
smoothSolver:  Solving for Uz, Initial residual = 8.56103e-06, Final residual = 3.08533e-07, No Iterations 2
GAMG:  Solving for p, Initial residual = 0.000494579, Final residual = 3.61501e-06, No Iterations 3
time step continuity errors : sum local = 3.87877e-05, global = -1.11891e-07, cumulative = 0.00698442
ExecutionTime = 1.23958 s  ClockTime = 1 s

Time = 51s

smoothSolver:  Solving for Ux, Initial residual = 0.17453, Final residual = 0.00346657, No Iterations 2
smoothSolver:  Solving for Uy, Initial residual = 0.174994, Final residual = 0.00348545, No Iterations 2
smoothSolver:  Solving for Uz, Initial residual = 7.84172e-06, Final residual = 2.81991e-07, No Iterations 2
GAMG:  Solving for p, Initial residual = 0.000455415, Final residual = 3.38935e-06, No Iterations 3
time step continuity errors : sum local = 3.63469e-05, global = -2.54304e-07, cumulative = 0.00698416
ExecutionTime = 1.25196 s  ClockTime = 1 s

Time = 52s

smoothSolver:  Solving for Ux, Initial residual = 0.16318, Final residual = 0.00320707, No Iterations 2
smoothSolver:  Solving for Uy, Initial residual = 0.163681, Final residual = 0.00322677, No Iterations 2
smoothSolver:  Solving for Uz, Initial residual = 7.20456e-06, Final residual = 2.56847e-07, No Iterations 2
GAMG:  Solving for p, Initial residual = 0.000419093, Final residual = 3.22883e-06, No Iterations 3
time step continuity errors : sum local = 3.46085e-05, global = -3.78351e-07, cumulative = 0.00698378
ExecutionTime = 1.26012 s  ClockTime = 1 s

Time = 53s

smoothSolver:  Solving for Ux, Initial residual = 0.152774, Final residual = 0.00296089, No Iterations 2
smoothSolver:  Solving for Uy, Initial residual = 0.153272, Final residual = 0.00298127, No Iterations 2
smoothSolver:  Solving for Uz, Initial residual = 6.64707e-06, Final residual = 2.32817e-07, No Iterations 2
GAMG:  Solving for p, Initial residual = 0.000384956, Final residual = 3.07363e-06, No Iterations 3
time step continuity errors : sum local = 3.29302e-05, global = -4.96094e-07, cumulative = 0.00698329
ExecutionTime = 1.2687 s  ClockTime = 1 s

Time = 54s

smoothSolver:  Solving for Ux, Initial residual = 0.142845, Final residual = 0.0027287, No Iterations 2
smoothSolver:  Solving for Uy, Initial residual = 0.143402, Final residual = 0.00274822, No Iterations 2
smoothSolver:  Solving for Uz, Initial residual = 6.13958e-06, Final residual = 2.1011e-07, No Iterations 2
GAMG:  Solving for p, Initial residual = 0.000353998, Final residual = 2.90936e-06, No Iterations 3
time step continuity errors : sum local = 3.11579e-05, global = -5.96804e-07, cumulative = 0.00698269
ExecutionTime = 1.27697 s  ClockTime = 1 s

Time = 55s

smoothSolver:  Solving for Ux, Initial residual = 0.133404, Final residual = 0.00251578, No Iterations 2
smoothSolver:  Solving for Uy, Initial residual = 0.133965, Final residual = 0.00253295, No Iterations 2
smoothSolver:  Solving for Uz, Initial residual = 5.66558e-06, Final residual = 1.89334e-07, No Iterations 2
GAMG:  Solving for p, Initial residual = 0.000324572, Final residual = 2.73438e-06, No Iterations 3
time step continuity errors : sum local = 2.92735e-05, global = -6.85908e-07, cumulative = 0.00698201
ExecutionTime = 1.28546 s  ClockTime = 1 s

Time = 56s

smoothSolver:  Solving for Ux, Initial residual = 0.124601, Final residual = 0.00232491, No Iterations 2
smoothSolver:  Solving for Uy, Initial residual = 0.125095, Final residual = 0.00234086, No Iterations 2
smoothSolver:  Solving for Uz, Initial residual = 5.21744e-06, Final residual = 1.70425e-07, No Iterations 2
GAMG:  Solving for p, Initial residual = 0.000296951, Final residual = 2.56655e-06, No Iterations 3
time step continuity errors : sum local = 2.74677e-05, global = -7.61648e-07, cumulative = 0.00698124
ExecutionTime = 1.29393 s  ClockTime = 1 s

Time = 57s

smoothSolver:  Solving for Ux, Initial residual = 0.116172, Final residual = 0.00214871, No Iterations 2
smoothSolver:  Solving for Uy, Initial residual = 0.116663, Final residual = 0.00216255, No Iterations 2
smoothSolver:  Solving for Uz, Initial residual = 4.78863e-06, Final residual = 1.53177e-07, No Iterations 2
GAMG:  Solving for p, Initial residual = 0.000272017, Final residual = 2.41127e-06, No Iterations 3
time step continuity errors : sum local = 2.57981e-05, global = -8.08721e-07, cumulative = 0.00698044
ExecutionTime = 1.30228 s  ClockTime = 1 s

Time = 58s

smoothSolver:  Solving for Ux, Initial residual = 0.10816, Final residual = 0.0019784, No Iterations 2
smoothSolver:  Solving for Uy, Initial residual = 0.108651, Final residual = 0.00199291, No Iterations 2
smoothSolver:  Solving for Uz, Initial residual = 4.40355e-06, Final residual = 1.37557e-07, No Iterations 2
GAMG:  Solving for p, Initial residual = 0.000249113, Final residual = 2.2616e-06, No Iterations 3
time step continuity errors : sum local = 2.41903e-05, global = -8.12076e-07, cumulative = 0.00697962
ExecutionTime = 1.3108 s  ClockTime = 1 s

Time = 59s

smoothSolver:  Solving for Ux, Initial residual = 0.100855, Final residual = 0.00181719, No Iterations 2
smoothSolver:  Solving for Uy, Initial residual = 0.101338, Final residual = 0.00183142, No Iterations 2
smoothSolver:  Solving for Uz, Initial residual = 4.05426e-06, Final residual = 1.23303e-07, No Iterations 2
GAMG:  Solving for p, Initial residual = 0.000228216, Final residual = 2.11684e-06, No Iterations 3
time step continuity errors : sum local = 2.26367e-05, global = -7.64612e-07, cumulative = 0.00697886
ExecutionTime = 1.31937 s  ClockTime = 1 s

Time = 60s

smoothSolver:  Solving for Ux, Initial residual = 0.0941962, Final residual = 0.00166763, No Iterations 2
smoothSolver:  Solving for Uy, Initial residual = 0.0946591, Final residual = 0.00168091, No Iterations 2
smoothSolver:  Solving for Uz, Initial residual = 3.73748e-06, Final residual = 1.10499e-07, No Iterations 2
GAMG:  Solving for p, Initial residual = 0.000209328, Final residual = 1.96522e-06, No Iterations 3
time step continuity errors : sum local = 2.10111e-05, global = -6.71601e-07, cumulative = 0.00697819
ExecutionTime = 1.32769 s  ClockTime = 1 s

Time = 61s

smoothSolver:  Solving for Ux, Initial residual = 0.0878427, Final residual = 0.00153063, No Iterations 2
smoothSolver:  Solving for Uy, Initial residual = 0.0883117, Final residual = 0.00154248, No Iterations 2
smoothSolver:  Solving for Uz, Initial residual = 3.45086e-06, Final residual = 9.90191e-08, No Iterations 2
GAMG:  Solving for p, Initial residual = 0.000191919, Final residual = 1.82433e-06, No Iterations 3
time step continuity errors : sum local = 1.95013e-05, global = -5.49031e-07, cumulative = 0.00697764
ExecutionTime = 1.33662 s  ClockTime = 1 s

Time = 62s

smoothSolver:  Solving for Ux, Initial residual = 0.081742, Final residual = 0.00140431, No Iterations 2
smoothSolver:  Solving for Uy, Initial residual = 0.082218, Final residual = 0.00141501, No Iterations 2
smoothSolver:  Solving for Uz, Initial residual = 3.19392e-06, Final residual = 8.91519e-08, No Iterations 2
GAMG:  Solving for p, Initial residual = 0.000175774, Final residual = 1.69408e-06, No Iterations 3
time step continuity errors : sum local = 1.81059e-05, global = -4.20215e-07, cumulative = 0.00697722
ExecutionTime = 1.34507 s  ClockTime = 1 s

Time = 63s

smoothSolver:  Solving for Ux, Initial residual = 0.0759584, Final residual = 0.00128769, No Iterations 2
smoothSolver:  Solving for Uy, Initial residual = 0.0764319, Final residual = 0.00129784, No Iterations 2
smoothSolver:  Solving for Uz, Initial residual = 2.95002e-06, Final residual = 8.09476e-08, No Iterations 2
GAMG:  Solving for p, Initial residual = 0.000161116, Final residual = 1.56462e-06, No Iterations 3
time step continuity errors : sum local = 1.67199e-05, global = 4.8883e-07, cumulative = 0.00697771
ExecutionTime = 1.35342 s  ClockTime = 1 s

Time = 64s

smoothSolver:  Solving for Ux, Initial residual = 0.0704226, Final residual = 0.00117926, No Iterations 2
smoothSolver:  Solving for Uy, Initial residual = 0.0708955, Final residual = 0.00118922, No Iterations 2
smoothSolver:  Solving for Uz, Initial residual = 2.80449e-06, Final residual = 7.59257e-08, No Iterations 2
GAMG:  Solving for p, Initial residual = 0.00014783, Final residual = 1.47015e-06, No Iterations 3
time step continuity errors : sum local = 1.57081e-05, global = 8.01794e-07, cumulative = 0.00697851
ExecutionTime = 1.36249 s  ClockTime = 1 s

Time = 65s

smoothSolver:  Solving for Ux, Initial residual = 0.0651753, Final residual = 0.00107885, No Iterations 2
smoothSolver:  Solving for Uy, Initial residual = 0.0656334, Final residual = 0.0010881, No Iterations 2
smoothSolver:  Solving for Uz, Initial residual = 2.56695e-06, Final residual = 6.80854e-08, No Iterations 2
GAMG:  Solving for p, Initial residual = 0.000135561, Final residual = 6.43003e-07, No Iterations 4
time step continuity errors : sum local = 6.86946e-06, global = -1.44533e-06, cumulative = 0.00697706
ExecutionTime = 1.37201 s  ClockTime = 1 s

Time = 66s

smoothSolver:  Solving for Ux, Initial residual = 0.0602909, Final residual = 0.000987904, No Iterations 2
smoothSolver:  Solving for Uy, Initial residual = 0.0610029, Final residual = 0.00100233, No Iterations 2
smoothSolver:  Solving for Uz, Initial residual = 2.83162e-06, Final residual = 7.51479e-08, No Iterations 2
GAMG:  Solving for p, Initial residual = 0.000124398, Final residual = 1.21886e-06, No Iterations 3
time step continuity errors : sum local = 1.30203e-05, global = -6.86431e-07, cumulative = 0.00697638
ExecutionTime = 1.38081 s  ClockTime = 1 s

Time = 67s

smoothSolver:  Solving for Ux, Initial residual = 0.0556496, Final residual = 0.000904437, No Iterations 2
smoothSolver:  Solving for Uy, Initial residual = 0.0561552, Final residual = 0.000915417, No Iterations 2
smoothSolver:  Solving for Uz, Initial residual = 2.10641e-06, Final residual = 6.01706e-08, No Iterations 2
GAMG:  Solving for p, Initial residual = 0.000113956, Final residual = 5.11603e-07, No Iterations 4
time step continuity errors : sum local = 5.46454e-06, global = 1.30931e-06, cumulative = 0.00697769
ExecutionTime = 1.38986 s  ClockTime = 2 s

Time = 68s

smoothSolver:  Solving for Ux, Initial residual = 0.0513575, Final residual = 0.000829132, No Iterations 2
smoothSolver:  Solving for Uy, Initial residual = 0.0519756, Final residual = 0.000840932, No Iterations 2
smoothSolver:  Solving for Uz, Initial residual = 2.48956e-06, Final residual = 6.8234e-08, No Iterations 2
GAMG:  Solving for p, Initial residual = 0.000104694, Final residual = 1.03034e-06, No Iterations 3
time step continuity errors : sum local = 1.10039e-05, global = 6.8863e-07, cumulative = 0.00697837
ExecutionTime = 1.39821 s  ClockTime = 2 s

Time = 69s

smoothSolver:  Solving for Ux, Initial residual = 0.0474306, Final residual = 0.000758435, No Iterations 2
smoothSolver:  Solving for Uy, Initial residual = 0.0478421, Final residual = 0.000767427, No Iterations 2
smoothSolver:  Solving for Uz, Initial residual = 1.90062e-06, Final residual = 5.26854e-08, No Iterations 2
GAMG:  Solving for p, Initial residual = 9.6118e-05, Final residual = 4.28338e-07, No Iterations 4
time step continuity errors : sum local = 4.57422e-06, global = -1.08132e-06, cumulative = 0.00697729
ExecutionTime = 1.40751 s  ClockTime = 2 s

Time = 70s

smoothSolver:  Solving for Ux, Initial residual = 0.0438054, Final residual = 0.000693186, No Iterations 2
smoothSolver:  Solving for Uy, Initial residual = 0.0443118, Final residual = 0.000702754, No Iterations 2
smoothSolver:  Solving for Uz, Initial residual = 2.00596e-06, Final residual = 4.85975e-08, No Iterations 2
GAMG:  Solving for p, Initial residual = 8.84905e-05, Final residual = 8.74383e-07, No Iterations 3
time step continuity errors : sum local = 9.33683e-06, global = -5.34451e-07, cumulative = 0.00697676
ExecutionTime = 1.41562 s  ClockTime = 2 s

Time = 71s

smoothSolver:  Solving for Ux, Initial residual = 0.0404063, Final residual = 0.000633282, No Iterations 2
smoothSolver:  Solving for Uy, Initial residual = 0.0407442, Final residual = 0.000640395, No Iterations 2
smoothSolver:  Solving for Uz, Initial residual = 1.55635e-06, Final residual = 3.69309e-08, No Iterations 2
GAMG:  Solving for p, Initial residual = 8.14734e-05, Final residual = 3.95516e-07, No Iterations 4
time step continuity errors : sum local = 4.22304e-06, global = 6.82291e-07, cumulative = 0.00697744
ExecutionTime = 1.42444 s  ClockTime = 2 s

Time = 72s

smoothSolver:  Solving for Ux, Initial residual = 0.0372451, Final residual = 0.000579818, No Iterations 2
smoothSolver:  Solving for Uy, Initial residual = 0.0376651, Final residual = 0.000587691, No Iterations 2
smoothSolver:  Solving for Uz, Initial residual = 1.78262e-06, Final residual = 4.79734e-08, No Iterations 2
GAMG:  Solving for p, Initial residual = 7.53329e-05, Final residual = 7.03509e-07, No Iterations 3
time step continuity errors : sum local = 7.51093e-06, global = 2.51812e-07, cumulative = 0.00697769
ExecutionTime = 1.43273 s  ClockTime = 2 s

Time = 73s

smoothSolver:  Solving for Ux, Initial residual = 0.0342533, Final residual = 0.000530305, No Iterations 2
smoothSolver:  Solving for Uy, Initial residual = 0.0345454, Final residual = 0.000536102, No Iterations 2
smoothSolver:  Solving for Uz, Initial residual = 1.40719e-06, Final residual = 3.66102e-08, No Iterations 2
GAMG:  Solving for p, Initial residual = 6.95109e-05, Final residual = 6.75295e-07, No Iterations 3
time step continuity errors : sum local = 7.20925e-06, global = 1.00402e-08, cumulative = 0.0069777
ExecutionTime = 1.44107 s  ClockTime = 2 s

Time = 74s

smoothSolver:  Solving for Ux, Initial residual = 0.0315007, Final residual = 0.000485335, No Iterations 2
smoothSolver:  Solving for Uy, Initial residual = 0.0317232, Final residual = 0.000488739, No Iterations 2
smoothSolver:  Solving for Uz, Initial residual = 1.20066e-06, Final residual = 2.93439e-08, No Iterations 2
GAMG:  Solving for p, Initial residual = 6.42553e-05, Final residual = 6.14104e-07, No Iterations 3
time step continuity errors : sum local = 6.55561e-06, global = 1.17036e-08, cumulative = 0.00697771
ExecutionTime = 1.44975 s  ClockTime = 2 s

Time = 75s

smoothSolver:  Solving for Ux, Initial residual = 0.028939, Final residual = 0.000444918, No Iterations 2
smoothSolver:  Solving for Uy, Initial residual = 0.0291466, Final residual = 0.000448051, No Iterations 2
smoothSolver:  Solving for Uz, Initial residual = 1.07654e-06, Final residual = 2.56892e-08, No Iterations 2
GAMG:  Solving for p, Initial residual = 5.93605e-05, Final residual = 5.601e-07, No Iterations 3
time step continuity errors : sum local = 5.97876e-06, global = 1.22231e-08, cumulative = 0.00697773
ExecutionTime = 1.45799 s  ClockTime = 2 s

Time = 76s

smoothSolver:  Solving for Ux, Initial residual = 0.0266006, Final residual = 0.000409155, No Iterations 2
smoothSolver:  Solving for Uy, Initial residual = 0.0267869, Final residual = 0.000412088, No Iterations 2
smoothSolver:  Solving for Uz, Initial residual = 9.81761e-07, Final residual = 2.39206e-08, No Iterations 2
GAMG:  Solving for p, Initial residual = 5.47652e-05, Final residual = 5.15913e-07, No Iterations 3
time step continuity errors : sum local = 5.50679e-06, global = 8.51562e-09, cumulative = 0.00697774
ExecutionTime = 1.46663 s  ClockTime = 2 s

Time = 77s

smoothSolver:  Solving for Ux, Initial residual = 0.02448, Final residual = 0.000376499, No Iterations 2
smoothSolver:  Solving for Uy, Initial residual = 0.0246618, Final residual = 0.000379405, No Iterations 2
smoothSolver:  Solving for Uz, Initial residual = 8.99389e-07, Final residual = 2.24901e-08, No Iterations 2
GAMG:  Solving for p, Initial residual = 5.04141e-05, Final residual = 4.95714e-07, No Iterations 3
time step continuity errors : sum local = 5.29093e-06, global = 1.52359e-08, cumulative = 0.00697775
ExecutionTime = 1.47502 s  ClockTime = 2 s

Time = 78s

smoothSolver:  Solving for Ux, Initial residual = 0.0225133, Final residual = 0.000346211, No Iterations 2
smoothSolver:  Solving for Uy, Initial residual = 0.0226864, Final residual = 0.000349094, No Iterations 2
smoothSolver:  Solving for Uz, Initial residual = 8.1845e-07, Final residual = 1.93466e-08, No Iterations 2
GAMG:  Solving for p, Initial residual = 4.63838e-05, Final residual = 2.22226e-07, No Iterations 4
time step continuity errors : sum local = 2.37179e-06, global = -2.46418e-07, cumulative = 0.0069775
ExecutionTime = 1.4839 s  ClockTime = 2 s

Time = 79s

smoothSolver:  Solving for Ux, Initial residual = 0.0207435, Final residual = 0.00031859, No Iterations 2
smoothSolver:  Solving for Uy, Initial residual = 0.0209987, Final residual = 0.000323461, No Iterations 2
smoothSolver:  Solving for Uz, Initial residual = 9.79774e-07, Final residual = 2.60161e-08, No Iterations 2
GAMG:  Solving for p, Initial residual = 4.27706e-05, Final residual = 4.05194e-07, No Iterations 3
time step continuity errors : sum local = 4.32441e-06, global = -2.25224e-08, cumulative = 0.00697748
ExecutionTime = 1.49242 s  ClockTime = 2 s

Time = 80s

smoothSolver:  Solving for Ux, Initial residual = 0.0191635, Final residual = 0.00029312, No Iterations 2
smoothSolver:  Solving for Uy, Initial residual = 0.0193527, Final residual = 0.000297213, No Iterations 2
smoothSolver:  Solving for Uz, Initial residual = 7.88954e-07, Final residual = 1.83563e-08, No Iterations 2
GAMG:  Solving for p, Initial residual = 3.93702e-05, Final residual = 3.83629e-07, No Iterations 3
time step continuity errors : sum local = 4.0941e-06, global = -5.77329e-08, cumulative = 0.00697742
ExecutionTime = 1.50063 s  ClockTime = 2 s

Time = 81s

smoothSolver:  Solving for Ux, Initial residual = 0.0177552, Final residual = 0.000269675, No Iterations 2
smoothSolver:  Solving for Uy, Initial residual = 0.0179003, Final residual = 0.000272241, No Iterations 2
smoothSolver:  Solving for Uz, Initial residual = 6.3698e-07, Final residual = 1.40913e-08, No Iterations 2
GAMG:  Solving for p, Initial residual = 3.6272e-05, Final residual = 3.4384e-07, No Iterations 3
time step continuity errors : sum local = 3.66934e-06, global = -3.41757e-08, cumulative = 0.00697739
ExecutionTime = 1.50881 s  ClockTime = 2 s

Time = 82s

smoothSolver:  Solving for Ux, Initial residual = 0.0164359, Final residual = 0.00024795, No Iterations 2
smoothSolver:  Solving for Uy, Initial residual = 0.0165742, Final residual = 0.000250377, No Iterations 2
smoothSolver:  Solving for Uz, Initial residual = 5.86878e-07, Final residual = 1.32371e-08, No Iterations 2
GAMG:  Solving for p, Initial residual = 3.33935e-05, Final residual = 3.16151e-07, No Iterations 3
time step continuity errors : sum local = 3.37375e-06, global = 1.62681e-08, cumulative = 0.00697741
ExecutionTime = 1.51859 s  ClockTime = 2 s

Time = 83s

smoothSolver:  Solving for Ux, Initial residual = 0.0152322, Final residual = 0.000227953, No Iterations 2
smoothSolver:  Solving for Uy, Initial residual = 0.0153679, Final residual = 0.000230294, No Iterations 2
smoothSolver:  Solving for Uz, Initial residual = 5.47766e-07, Final residual = 1.33177e-08, No Iterations 2
GAMG:  Solving for p, Initial residual = 3.07702e-05, Final residual = 3.03294e-07, No Iterations 3
time step continuity errors : sum local = 3.23646e-06, global = 5.51282e-08, cumulative = 0.00697746
ExecutionTime = 1.52689 s  ClockTime = 2 s

Time = 84s

smoothSolver:  Solving for Ux, Initial residual = 0.0141369, Final residual = 0.000209321, No Iterations 2
smoothSolver:  Solving for Uy, Initial residual = 0.0142702, Final residual = 0.000211643, No Iterations 2
smoothSolver:  Solving for Uz, Initial residual = 5.11329e-07, Final residual = 1.20867e-08, No Iterations 2
GAMG:  Solving for p, Initial residual = 2.83378e-05, Final residual = 2.8289e-07, No Iterations 3
time step continuity errors : sum local = 3.01865e-06, global = -1.27985e-08, cumulative = 0.00697745
ExecutionTime = 1.53554 s  ClockTime = 2 s

Time = 85s

smoothSolver:  Solving for Ux, Initial residual = 0.0131112, Final residual = 0.000192175, No Iterations 2
smoothSolver:  Solving for Uy, Initial residual = 0.0132427, Final residual = 0.000194377, No Iterations 2
smoothSolver:  Solving for Uz, Initial residual = 4.63427e-07, Final residual = 9.77618e-09, No Iterations 2
GAMG:  Solving for p, Initial residual = 2.60816e-05, Final residual = 2.59012e-07, No Iterations 3
time step continuity errors : sum local = 2.7638e-06, global = -2.68938e-09, cumulative = 0.00697745
ExecutionTime = 1.544 s  ClockTime = 2 s

Time = 86s

smoothSolver:  Solving for Ux, Initial residual = 0.0121483, Final residual = 0.00017646, No Iterations 2
smoothSolver:  Solving for Uy, Initial residual = 0.0122767, Final residual = 0.000178551, No Iterations 2
smoothSolver:  Solving for Uz, Initial residual = 4.23414e-07, Final residual = 8.52969e-09, No Iterations 2
GAMG:  Solving for p, Initial residual = 2.39684e-05, Final residual = 2.39072e-07, No Iterations 3
time step continuity errors : sum local = 2.55098e-06, global = 2.72787e-08, cumulative = 0.00697747
ExecutionTime = 1.55238 s  ClockTime = 2 s

Time = 87s

smoothSolver:  Solving for Ux, Initial residual = 0.0112517, Final residual = 0.000162037, No Iterations 2
smoothSolver:  Solving for Uy, Initial residual = 0.0113747, Final residual = 0.000164011, No Iterations 2
smoothSolver:  Solving for Uz, Initial residual = 3.9505e-07, Final residual = 8.62696e-09, No Iterations 2
GAMG:  Solving for p, Initial residual = 2.20158e-05, Final residual = 9.46165e-08, No Iterations 4
time step continuity errors : sum local = 1.00957e-06, global = -2.61729e-07, cumulative = 0.00697721
ExecutionTime = 1.56115 s  ClockTime = 2 s

Time = 88s

smoothSolver:  Solving for Ux, Initial residual = 0.0104228, Final residual = 0.000148948, No Iterations 2
smoothSolver:  Solving for Uy, Initial residual = 0.0105898, Final residual = 0.0001517, No Iterations 2
smoothSolver:  Solving for Uz, Initial residual = 4.54565e-07, Final residual = 1.1392e-08, No Iterations 2
GAMG:  Solving for p, Initial residual = 2.02432e-05, Final residual = 1.98877e-07, No Iterations 3
time step continuity errors : sum local = 2.12201e-06, global = -4.06325e-08, cumulative = 0.00697717
ExecutionTime = 1.5701 s  ClockTime = 2 s

Time = 89s

smoothSolver:  Solving for Ux, Initial residual = 0.0096417, Final residual = 0.000136579, No Iterations 2
smoothSolver:  Solving for Uy, Initial residual = 0.00976832, Final residual = 0.000138823, No Iterations 2
smoothSolver:  Solving for Uz, Initial residual = 3.6444e-07, Final residual = 7.86233e-09, No Iterations 2
GAMG:  Solving for p, Initial residual = 1.85558e-05, Final residual = 1.84005e-07, No Iterations 3
time step continuity errors : sum local = 1.96331e-06, global = -8.57231e-09, cumulative = 0.00697716
ExecutionTime = 1.57834 s  ClockTime = 2 s

Time = 90s

smoothSolver:  Solving for Ux, Initial residual = 0.00891768, Final residual = 0.000125173, No Iterations 2
smoothSolver:  Solving for Uy, Initial residual = 0.00901883, Final residual = 0.000126789, No Iterations 2
smoothSolver:  Solving for Uz, Initial residual = 3.12391e-07, Final residual = 6.48961e-09, No Iterations 2
GAMG:  Solving for p, Initial residual = 1.7042e-05, Final residual = 1.6531e-07, No Iterations 3
time step continuity errors : sum local = 1.76382e-06, global = -6.03411e-09, cumulative = 0.00697716
ExecutionTime = 1.58688 s  ClockTime = 2 s

Time = 91s

smoothSolver:  Solving for Ux, Initial residual = 0.00825215, Final residual = 0.000114743, No Iterations 2
smoothSolver:  Solving for Uy, Initial residual = 0.0083476, Final residual = 0.00011616, No Iterations 2
smoothSolver:  Solving for Uz, Initial residual = 2.85097e-07, Final residual = 6.30562e-09, No Iterations 2
GAMG:  Solving for p, Initial residual = 1.56609e-05, Final residual = 1.52935e-07, No Iterations 3
time step continuity errors : sum local = 1.63176e-06, global = -8.22413e-09, cumulative = 0.00697715
ExecutionTime = 1.59518 s  ClockTime = 2 s

Time = 92s

smoothSolver:  Solving for Ux, Initial residual = 0.00763383, Final residual = 0.000105198, No Iterations 2
smoothSolver:  Solving for Uy, Initial residual = 0.00772585, Final residual = 0.000106476, No Iterations 2
smoothSolver:  Solving for Uz, Initial residual = 2.62256e-07, Final residual = 6.02446e-09, No Iterations 2
GAMG:  Solving for p, Initial residual = 1.43832e-05, Final residual = 6.68338e-08, No Iterations 4
time step continuity errors : sum local = 7.13086e-07, global = 9.11122e-08, cumulative = 0.00697724
ExecutionTime = 1.60413 s  ClockTime = 2 s

Time = 93s

smoothSolver:  Solving for Ux, Initial residual = 0.0070565, Final residual = 9.65548e-05, No Iterations 2
smoothSolver:  Solving for Uy, Initial residual = 0.00717697, Final residual = 9.83401e-05, No Iterations 2
smoothSolver:  Solving for Uz, Initial residual = 3.069e-07, Final residual = 7.89504e-09, No Iterations 2
GAMG:  Solving for p, Initial residual = 1.32388e-05, Final residual = 1.27518e-07, No Iterations 3
time step continuity errors : sum local = 1.36054e-06, global = -3.27791e-09, cumulative = 0.00697724
ExecutionTime = 1.61253 s  ClockTime = 2 s

Time = 94s

smoothSolver:  Solving for Ux, Initial residual = 0.00651003, Final residual = 8.82745e-05, No Iterations 2
smoothSolver:  Solving for Uy, Initial residual = 0.00660346, Final residual = 8.97784e-05, No Iterations 2
smoothSolver:  Solving for Uz, Initial residual = 2.54307e-07, Final residual = 5.19963e-09, No Iterations 2
GAMG:  Solving for p, Initial residual = 1.21554e-05, Final residual = 1.17466e-07, No Iterations 3
time step continuity errors : sum local = 1.25329e-06, global = 1.19305e-08, cumulative = 0.00697725
ExecutionTime = 1.62092 s  ClockTime = 2 s

Time = 95s

smoothSolver:  Solving for Ux, Initial residual = 0.00600474, Final residual = 8.06866e-05, No Iterations 2
smoothSolver:  Solving for Uy, Initial residual = 0.0060815, Final residual = 8.1786e-05, No Iterations 2
smoothSolver:  Solving for Uz, Initial residual = 2.03828e-07, Final residual = 4.28764e-09, No Iterations 2
GAMG:  Solving for p, Initial residual = 1.11875e-05, Final residual = 1.03629e-07, No Iterations 3
time step continuity errors : sum local = 1.10565e-06, global = -9.61231e-09, cumulative = 0.00697724
ExecutionTime = 1.62944 s  ClockTime = 2 s

Time = 96s

smoothSolver:  Solving for Ux, Initial residual = 0.00553384, Final residual = 7.38195e-05, No Iterations 2
smoothSolver:  Solving for Uy, Initial residual = 0.00560485, Final residual = 7.48219e-05, No Iterations 2
smoothSolver:  Solving for Uz, Initial residual = 1.88375e-07, Final residual = 4.09932e-09, No Iterations 2
GAMG:  Solving for p, Initial residual = 1.03059e-05, Final residual = 9.82736e-08, No Iterations 3
time step continuity errors : sum local = 1.04851e-06, global = 7.72975e-09, cumulative = 0.00697725
ExecutionTime = 1.63786 s  ClockTime = 2 s

Time = 97s

smoothSolver:  Solving for Ux, Initial residual = 0.00509893, Final residual = 6.75978e-05, No Iterations 2
smoothSolver:  Solving for Uy, Initial residual = 0.00516462, Final residual = 6.85061e-05, No Iterations 2
smoothSolver:  Solving for Uz, Initial residual = 1.72736e-07, Final residual = 3.73246e-09, No Iterations 2
GAMG:  Solving for p, Initial residual = 9.49333e-06, Final residual = 9.34124e-08, No Iterations 3
time step continuity errors : sum local = 9.96635e-07, global = -7.39292e-09, cumulative = 0.00697724
ExecutionTime = 1.64605 s  ClockTime = 2 s

Time = 98s

smoothSolver:  Solving for Ux, Initial residual = 0.00469095, Final residual = 6.19327e-05, No Iterations 2
smoothSolver:  Solving for Uy, Initial residual = 0.00475229, Final residual = 6.27766e-05, No Iterations 2
smoothSolver:  Solving for Uz, Initial residual = 1.5838e-07, Final residual = 2.98182e-09, No Iterations 2
GAMG:  Solving for p, Initial residual = 8.76255e-06, Final residual = 8.48006e-08, No Iterations 3
time step continuity errors : sum local = 9.04751e-07, global = 9.21059e-09, cumulative = 0.00697725
ExecutionTime = 1.6547 s  ClockTime = 2 s

Time = 99s

smoothSolver:  Solving for Ux, Initial residual = 0.00431264, Final residual = 5.6798e-05, No Iterations 2
smoothSolver:  Solving for Uy, Initial residual = 0.00437049, Final residual = 5.75545e-05, No Iterations 2
smoothSolver:  Solving for Uz, Initial residual = 1.44875e-07, Final residual = 2.64455e-09, No Iterations 2
GAMG:  Solving for p, Initial residual = 8.09178e-06, Final residual = 7.50126e-08, No Iterations 3
time step continuity errors : sum local = 8.00317e-07, global = 1.23245e-08, cumulative = 0.00697726
ExecutionTime = 1.66281 s  ClockTime = 2 s

Time = 100s

smoothSolver:  Solving for Ux, Initial residual = 0.0039666, Final residual = 5.2111e-05, No Iterations 2
smoothSolver:  Solving for Uy, Initial residual = 0.00401977, Final residual = 5.28104e-05, No Iterations 2
smoothSolver:  Solving for Uz, Initial residual = 1.34295e-07, Final residual = 2.6655e-09, No Iterations 2
GAMG:  Solving for p, Initial residual = 7.47553e-06, Final residual = 6.89091e-08, No Iterations 3
time step continuity errors : sum local = 7.35197e-07, global = -4.58741e-09, cumulative = 0.00697726
ExecutionTime = 1.69439 s  ClockTime = 2 s

Time = 101s

smoothSolver:  Solving for Ux, Initial residual = 0.00365007, Final residual = 4.78259e-05, No Iterations 2
smoothSolver:  Solving for Uy, Initial residual = 0.00369978, Final residual = 4.85087e-05, No Iterations 2
smoothSolver:  Solving for Uz, Initial residual = 1.24154e-07, Final residual = 2.38694e-09, No Iterations 2
GAMG:  Solving for p, Initial residual = 6.91888e-06, Final residual = 6.40844e-08, No Iterations 3
time step continuity errors : sum local = 6.83719e-07, global = -9.15212e-09, cumulative = 0.00697725
ExecutionTime = 1.70726 s  ClockTime = 2 s

Time = 102s

smoothSolver:  Solving for Ux, Initial residual = 0.00335662, Final residual = 4.38577e-05, No Iterations 2
smoothSolver:  Solving for Uy, Initial residual = 0.00340413, Final residual = 4.45042e-05, No Iterations 2
smoothSolver:  Solving for Uz, Initial residual = 1.13087e-07, Final residual = 2.07236e-09, No Iterations 2
GAMG:  Solving for p, Initial residual = 6.40561e-06, Final residual = 5.78306e-08, No Iterations 3
time step continuity errors : sum local = 6.16996e-07, global = -8.1124e-09, cumulative = 0.00697724
ExecutionTime = 1.71623 s  ClockTime = 2 s

Time = 103s

smoothSolver:  Solving for Ux, Initial residual = 0.00308416, Final residual = 4.02537e-05, No Iterations 2
smoothSolver:  Solving for Uy, Initial residual = 0.0031287, Final residual = 4.08563e-05, No Iterations 2
smoothSolver:  Solving for Uz, Initial residual = 1.03308e-07, Final residual = 1.87544e-09, No Iterations 2
GAMG:  Solving for p, Initial residual = 5.92926e-06, Final residual = 5.17047e-08, No Iterations 3
time step continuity errors : sum local = 5.51638e-07, global = -4.56705e-09, cumulative = 0.00697723
ExecutionTime = 1.7255 s  ClockTime = 2 s

Time = 104s

smoothSolver:  Solving for Ux, Initial residual = 0.00283632, Final residual = 3.6985e-05, No Iterations 2
smoothSolver:  Solving for Uy, Initial residual = 0.00287621, Final residual = 3.75716e-05, No Iterations 2
smoothSolver:  Solving for Uz, Initial residual = 9.48149e-08, Final residual = 1.77784e-09, No Iterations 2
GAMG:  Solving for p, Initial residual = 5.48272e-06, Final residual = 4.70834e-08, No Iterations 3
time step continuity errors : sum local = 5.02333e-07, global = -1.27583e-09, cumulative = 0.00697723
ExecutionTime = 1.73394 s  ClockTime = 2 s

Time = 105s

smoothSolver:  Solving for Ux, Initial residual = 0.00261223, Final residual = 3.40053e-05, No Iterations 2
smoothSolver:  Solving for Uy, Initial residual = 0.00264791, Final residual = 3.45404e-05, No Iterations 2
smoothSolver:  Solving for Uz, Initial residual = 8.74627e-08, Final residual = 1.6134e-09, No Iterations 2
GAMG:  Solving for p, Initial residual = 5.07048e-06, Final residual = 4.32359e-08, No Iterations 3
time step continuity errors : sum local = 4.61283e-07, global = 2.99126e-10, cumulative = 0.00697723
ExecutionTime = 1.74261 s  ClockTime = 2 s

Time = 106s

smoothSolver:  Solving for Ux, Initial residual = 0.00240626, Final residual = 3.13691e-05, No Iterations 2
smoothSolver:  Solving for Uy, Initial residual = 0.00243961, Final residual = 3.18586e-05, No Iterations 2
smoothSolver:  Solving for Uz, Initial residual = 8.03251e-08, Final residual = 9.30862e-09, No Iterations 1
GAMG:  Solving for p, Initial residual = 4.68744e-06, Final residual = 3.87375e-08, No Iterations 3
time step continuity errors : sum local = 4.1329e-07, global = 7.05526e-09, cumulative = 0.00697724
ExecutionTime = 1.75106 s  ClockTime = 2 s

Time = 107s

smoothSolver:  Solving for Ux, Initial residual = 0.00221475, Final residual = 2.89783e-05, No Iterations 2
smoothSolver:  Solving for Uy, Initial residual = 0.00224633, Final residual = 2.94377e-05, No Iterations 2
smoothSolver:  Solving for Uz, Initial residual = 7.29466e-08, Final residual = 8.49588e-09, No Iterations 1
GAMG:  Solving for p, Initial residual = 4.32835e-06, Final residual = 3.53573e-08, No Iterations 3
time step continuity errors : sum local = 3.77226e-07, global = -4.13768e-09, cumulative = 0.00697724
ExecutionTime = 1.75939 s  ClockTime = 2 s

Time = 108s

smoothSolver:  Solving for Ux, Initial residual = 0.0020381, Final residual = 2.6763e-05, No Iterations 2
smoothSolver:  Solving for Uy, Initial residual = 0.00206803, Final residual = 2.71888e-05, No Iterations 2
smoothSolver:  Solving for Uz, Initial residual = 6.64007e-08, Final residual = 7.65498e-09, No Iterations 1
GAMG:  Solving for p, Initial residual = 3.99052e-06, Final residual = 3.21165e-08, No Iterations 3
time step continuity errors : sum local = 3.42649e-07, global = -2.44721e-09, cumulative = 0.00697723
ExecutionTime = 1.76786 s  ClockTime = 2 s

Time = 109s

smoothSolver:  Solving for Ux, Initial residual = 0.00188038, Final residual = 2.46685e-05, No Iterations 2
smoothSolver:  Solving for Uy, Initial residual = 0.00190769, Final residual = 2.50696e-05, No Iterations 2
smoothSolver:  Solving for Uz, Initial residual = 6.11659e-08, Final residual = 7.00195e-09, No Iterations 1
GAMG:  Solving for p, Initial residual = 3.67486e-06, Final residual = 2.94606e-08, No Iterations 3
time step continuity errors : sum local = 3.14314e-07, global = -4.40298e-09, cumulative = 0.00697723
ExecutionTime = 1.77618 s  ClockTime = 2 s

Time = 110s

smoothSolver:  Solving for Ux, Initial residual = 0.00174152, Final residual = 2.27316e-05, No Iterations 2
smoothSolver:  Solving for Uy, Initial residual = 0.00176673, Final residual = 2.31133e-05, No Iterations 2
smoothSolver:  Solving for Uz, Initial residual = 5.68195e-08, Final residual = 6.48758e-09, No Iterations 1
GAMG:  Solving for p, Initial residual = 3.38112e-06, Final residual = 9.96029e-08, No Iterations 2
time step continuity errors : sum local = 1.06266e-06, global = -4.49763e-11, cumulative = 0.00697723
ExecutionTime = 1.78404 s  ClockTime = 2 s

Time = 111s

smoothSolver:  Solving for Ux, Initial residual = 0.00160423, Final residual = 2.07877e-05, No Iterations 2
smoothSolver:  Solving for Uy, Initial residual = 0.00159736, Final residual = 2.05813e-05, No Iterations 2
smoothSolver:  Solving for Uz, Initial residual = 7.156e-08, Final residual = 8.99667e-09, No Iterations 1
GAMG:  Solving for p, Initial residual = 3.09574e-06, Final residual = 9.08049e-08, No Iterations 2
time step continuity errors : sum local = 9.68792e-07, global = -3.33437e-10, cumulative = 0.00697723
ExecutionTime = 1.79246 s  ClockTime = 2 s

Time = 112s

smoothSolver:  Solving for Ux, Initial residual = 0.00148391, Final residual = 1.90944e-05, No Iterations 2
smoothSolver:  Solving for Uy, Initial residual = 0.00146952, Final residual = 1.86828e-05, No Iterations 2
smoothSolver:  Solving for Uz, Initial residual = 5.16277e-08, Final residual = 6.47767e-09, No Iterations 1
GAMG:  Solving for p, Initial residual = 2.85067e-06, Final residual = 8.39266e-08, No Iterations 2
time step continuity errors : sum local = 8.95407e-07, global = -2.25261e-10, cumulative = 0.00697723
ExecutionTime = 1.80015 s  ClockTime = 2 s

Time = 113s

smoothSolver:  Solving for Ux, Initial residual = 0.00137559, Final residual = 1.75943e-05, No Iterations 2
smoothSolver:  Solving for Uy, Initial residual = 0.00136516, Final residual = 1.72752e-05, No Iterations 2
smoothSolver:  Solving for Uz, Initial residual = 4.74627e-08, Final residual = 5.99598e-09, No Iterations 1
GAMG:  Solving for p, Initial residual = 2.62591e-06, Final residual = 7.719e-08, No Iterations 2
time step continuity errors : sum local = 8.23535e-07, global = -9.26382e-11, cumulative = 0.00697723
ExecutionTime = 1.80916 s  ClockTime = 2 s

Time = 114s

smoothSolver:  Solving for Ux, Initial residual = 0.00127614, Final residual = 1.61957e-05, No Iterations 2
smoothSolver:  Solving for Uy, Initial residual = 0.00127042, Final residual = 1.59923e-05, No Iterations 2
smoothSolver:  Solving for Uz, Initial residual = 4.35984e-08, Final residual = 5.69513e-09, No Iterations 1
GAMG:  Solving for p, Initial residual = 2.42005e-06, Final residual = 7.07125e-08, No Iterations 2
time step continuity errors : sum local = 7.54426e-07, global = -1.67847e-12, cumulative = 0.00697723
ExecutionTime = 1.81805 s  ClockTime = 2 s

Time = 115s

smoothSolver:  Solving for Ux, Initial residual = 0.00118437, Final residual = 1.4893e-05, No Iterations 2
smoothSolver:  Solving for Uy, Initial residual = 0.00118297, Final residual = 1.47901e-05, No Iterations 2
smoothSolver:  Solving for Uz, Initial residual = 4.10881e-08, Final residual = 5.37651e-09, No Iterations 1
GAMG:  Solving for p, Initial residual = 2.23044e-06, Final residual = 6.44821e-08, No Iterations 2
time step continuity errors : sum local = 6.87954e-07, global = 6.00645e-11, cumulative = 0.00697723
ExecutionTime = 1.82562 s  ClockTime = 2 s

Time = 116s

smoothSolver:  Solving for Ux, Initial residual = 0.00109889, Final residual = 1.36887e-05, No Iterations 2
smoothSolver:  Solving for Uy, Initial residual = 0.00110125, Final residual = 1.36669e-05, No Iterations 2
smoothSolver:  Solving for Uz, Initial residual = 3.83415e-08, Final residual = 5.03046e-09, No Iterations 1
GAMG:  Solving for p, Initial residual = 2.05432e-06, Final residual = 5.85253e-08, No Iterations 2
time step continuity errors : sum local = 6.24402e-07, global = -5.70628e-10, cumulative = 0.00697723
ExecutionTime = 1.83359 s  ClockTime = 2 s

Time = 117s

smoothSolver:  Solving for Ux, Initial residual = 0.00101855, Final residual = 1.25828e-05, No Iterations 2
smoothSolver:  Solving for Uy, Initial residual = 0.00102414, Final residual = 1.26176e-05, No Iterations 2
smoothSolver:  Solving for Uz, Initial residual = 3.57156e-08, Final residual = 4.67726e-09, No Iterations 1
GAMG:  Solving for p, Initial residual = 1.89067e-06, Final residual = 5.34056e-08, No Iterations 2
time step continuity errors : sum local = 5.6978e-07, global = -2.89575e-10, cumulative = 0.00697723
ExecutionTime = 1.84129 s  ClockTime = 2 s

Time = 118s

smoothSolver:  Solving for Ux, Initial residual = 0.000943369, Final residual = 1.15881e-05, No Iterations 2
smoothSolver:  Solving for Uy, Initial residual = 0.000951424, Final residual = 9.49599e-05, No Iterations 1
smoothSolver:  Solving for Uz, Initial residual = 3.3412e-08, Final residual = 4.36611e-09, No Iterations 1
GAMG:  Solving for p, Initial residual = 1.76051e-06, Final residual = 4.9897e-08, No Iterations 2
time step continuity errors : sum local = 5.32347e-07, global = 1.43626e-10, cumulative = 0.00697723
ExecutionTime = 1.84962 s  ClockTime = 2 s

Time = 119s

smoothSolver:  Solving for Ux, Initial residual = 0.000875834, Final residual = 8.69513e-05, No Iterations 1
smoothSolver:  Solving for Uy, Initial residual = 0.00087039, Final residual = 8.67867e-05, No Iterations 1
smoothSolver:  Solving for Uz, Initial residual = 3.30235e-08, Final residual = 4.38149e-09, No Iterations 1
GAMG:  Solving for p, Initial residual = 1.63551e-06, Final residual = 4.62698e-08, No Iterations 2
time step continuity errors : sum local = 4.93648e-07, global = 6.78811e-10, cumulative = 0.00697723
ExecutionTime = 1.85763 s  ClockTime = 2 s

Time = 120s

smoothSolver:  Solving for Ux, Initial residual = 0.000799382, Final residual = 7.94347e-05, No Iterations 1
smoothSolver:  Solving for Uy, Initial residual = 0.000806108, Final residual = 7.96827e-05, No Iterations 1
smoothSolver:  Solving for Uz, Initial residual = 2.95098e-08, Final residual = 3.76282e-09, No Iterations 1
GAMG:  Solving for p, Initial residual = 1.49721e-06, Final residual = 4.2302e-08, No Iterations 2
time step continuity errors : sum local = 4.51317e-07, global = -5.6009e-10, cumulative = 0.00697723
ExecutionTime = 1.86508 s  ClockTime = 2 s

Time = 121s

smoothSolver:  Solving for Ux, Initial residual = 0.000735657, Final residual = 7.28284e-05, No Iterations 1
smoothSolver:  Solving for Uy, Initial residual = 0.000745063, Final residual = 7.34001e-05, No Iterations 1
smoothSolver:  Solving for Uz, Initial residual = 2.7265e-08, Final residual = 3.50144e-09, No Iterations 1
GAMG:  Solving for p, Initial residual = 1.37143e-06, Final residual = 3.84797e-08, No Iterations 2
time step continuity errors : sum local = 4.10536e-07, global = -9.04094e-10, cumulative = 0.00697723
ExecutionTime = 1.87298 s  ClockTime = 2 s

Time = 122s

smoothSolver:  Solving for Ux, Initial residual = 0.000677117, Final residual = 6.69259e-05, No Iterations 1
smoothSolver:  Solving for Uy, Initial residual = 0.000688791, Final residual = 6.78516e-05, No Iterations 1
[...]
ExecutionTime = 4.50075 s  ClockTime = 5 s

Time = 467s

smoothSolver:  Solving for Ux, Initial residual = 1.01037e-07, Final residual = 3.83081e-09, No Iterations 2
smoothSolver:  Solving for Uy, Initial residual = 1.01037e-07, Final residual = 3.83081e-09, No Iterations 2
smoothSolver:  Solving for Uz, Initial residual = 9.73222e-09, Final residual = 9.73222e-09, No Iterations 0
GAMG:  Solving for p, Initial residual = 8.72932e-08, Final residual = 8.72932e-08, No Iterations 0
time step continuity errors : sum local = 9.31322e-07, global = -3.98902e-09, cumulative = 0.0069766
ExecutionTime = 4.50745 s  ClockTime = 5 s

Time = 468s

smoothSolver:  Solving for Ux, Initial residual = 6.34937e-08, Final residual = 2.38157e-09, No Iterations 2
smoothSolver:  Solving for Uy, Initial residual = 6.34936e-08, Final residual = 2.38156e-09, No Iterations 2
smoothSolver:  Solving for Uz, Initial residual = 1.15389e-08, Final residual = 2.08745e-09, No Iterations 1
GAMG:  Solving for p, Initial residual = 8.69741e-08, Final residual = 8.69741e-08, No Iterations 0
time step continuity errors : sum local = 9.27918e-07, global = -2.41691e-10, cumulative = 0.0069766
ExecutionTime = 4.51431 s  ClockTime = 5 s

Time = 469s

smoothSolver:  Solving for Ux, Initial residual = 1.087e-07, Final residual = 3.98939e-09, No Iterations 2
smoothSolver:  Solving for Uy, Initial residual = 1.087e-07, Final residual = 3.98938e-09, No Iterations 2
smoothSolver:  Solving for Uz, Initial residual = 1.05273e-08, Final residual = 1.95241e-09, No Iterations 1
GAMG:  Solving for p, Initial residual = 8.66636e-08, Final residual = 8.66636e-08, No Iterations 0
time step continuity errors : sum local = 9.24605e-07, global = -2.62144e-09, cumulative = 0.0069766
ExecutionTime = 4.52137 s  ClockTime = 5 s

Time = 470s

smoothSolver:  Solving for Ux, Initial residual = 1.00438e-07, Final residual = 3.83844e-09, No Iterations 2
smoothSolver:  Solving for Uy, Initial residual = 1.00437e-07, Final residual = 3.83844e-09, No Iterations 2
smoothSolver:  Solving for Uz, Initial residual = 9.671e-09, Final residual = 9.671e-09, No Iterations 0
GAMG:  Solving for p, Initial residual = 8.73044e-08, Final residual = 8.73044e-08, No Iterations 0
time step continuity errors : sum local = 9.31441e-07, global = -3.73722e-09, cumulative = 0.00697659
ExecutionTime = 4.52831 s  ClockTime = 5 s

Time = 471s

smoothSolver:  Solving for Ux, Initial residual = 6.35541e-08, Final residual = 2.36823e-09, No Iterations 2
smoothSolver:  Solving for Uy, Initial residual = 6.35541e-08, Final residual = 2.36823e-09, No Iterations 2
smoothSolver:  Solving for Uz, Initial residual = 1.14862e-08, Final residual = 2.10114e-09, No Iterations 1
GAMG:  Solving for p, Initial residual = 8.69544e-08, Final residual = 8.69544e-08, No Iterations 0
time step continuity errors : sum local = 9.27707e-07, global = -1.6409e-09, cumulative = 0.00697659
ExecutionTime = 4.53501 s  ClockTime = 5 s

Time = 472s

smoothSolver:  Solving for Ux, Initial residual = 1.07957e-07, Final residual = 4.00125e-09, No Iterations 2
smoothSolver:  Solving for Uy, Initial residual = 1.07957e-07, Final residual = 4.00125e-09, No Iterations 2
smoothSolver:  Solving for Uz, Initial residual = 1.04415e-08, Final residual = 1.94906e-09, No Iterations 1
GAMG:  Solving for p, Initial residual = 8.66505e-08, Final residual = 8.66505e-08, No Iterations 0
time step continuity errors : sum local = 9.24465e-07, global = -1.13895e-09, cumulative = 0.00697659
ExecutionTime = 4.54197 s  ClockTime = 5 s

Time = 473s

smoothSolver:  Solving for Ux, Initial residual = 1.0035e-07, Final residual = 3.82525e-09, No Iterations 2
smoothSolver:  Solving for Uy, Initial residual = 1.00349e-07, Final residual = 3.82525e-09, No Iterations 2
smoothSolver:  Solving for Uz, Initial residual = 9.67916e-09, Final residual = 9.67916e-09, No Iterations 0
GAMG:  Solving for p, Initial residual = 8.72965e-08, Final residual = 8.72965e-08, No Iterations 0
time step continuity errors : sum local = 9.31357e-07, global = -1.79136e-09, cumulative = 0.00697659
ExecutionTime = 4.54873 s  ClockTime = 5 s

Time = 474s

smoothSolver:  Solving for Ux, Initial residual = 6.31237e-08, Final residual = 2.35724e-09, No Iterations 2
smoothSolver:  Solving for Uy, Initial residual = 6.31236e-08, Final residual = 2.35724e-09, No Iterations 2
smoothSolver:  Solving for Uz, Initial residual = 1.14074e-08, Final residual = 2.08075e-09, No Iterations 1
GAMG:  Solving for p, Initial residual = 8.69325e-08, Final residual = 8.69325e-08, No Iterations 0
time step continuity errors : sum local = 9.27473e-07, global = -3.46479e-09, cumulative = 0.00697658
ExecutionTime = 4.55541 s  ClockTime = 5 s

Time = 475s

smoothSolver:  Solving for Ux, Initial residual = 1.07728e-07, Final residual = 3.97297e-09, No Iterations 2
smoothSolver:  Solving for Uy, Initial residual = 1.07728e-07, Final residual = 3.97297e-09, No Iterations 2
smoothSolver:  Solving for Uz, Initial residual = 1.04617e-08, Final residual = 1.92201e-09, No Iterations 1
GAMG:  Solving for p, Initial residual = 8.66341e-08, Final residual = 8.66341e-08, No Iterations 0
time step continuity errors : sum local = 9.2429e-07, global = -5.33467e-10, cumulative = 0.00697658
ExecutionTime = 4.56295 s  ClockTime = 5 s

Time = 476s

smoothSolver:  Solving for Ux, Initial residual = 1.0022e-07, Final residual = 3.77073e-09, No Iterations 2
smoothSolver:  Solving for Uy, Initial residual = 1.0022e-07, Final residual = 3.77073e-09, No Iterations 2
smoothSolver:  Solving for Uz, Initial residual = 9.65605e-09, Final residual = 9.65605e-09, No Iterations 0
GAMG:  Solving for p, Initial residual = 8.72951e-08, Final residual = 8.72951e-08, No Iterations 0
time step continuity errors : sum local = 9.31343e-07, global = -6.67612e-11, cumulative = 0.00697658
ExecutionTime = 4.56988 s  ClockTime = 5 s

Time = 477s

smoothSolver:  Solving for Ux, Initial residual = 6.30079e-08, Final residual = 2.34419e-09, No Iterations 2
smoothSolver:  Solving for Uy, Initial residual = 6.30078e-08, Final residual = 2.34419e-09, No Iterations 2
smoothSolver:  Solving for Uz, Initial residual = 1.14495e-08, Final residual = 2.06161e-09, No Iterations 1
GAMG:  Solving for p, Initial residual = 8.69339e-08, Final residual = 8.69339e-08, No Iterations 0
time step continuity errors : sum local = 9.27489e-07, global = -3.90614e-09, cumulative = 0.00697658
ExecutionTime = 4.57664 s  ClockTime = 5 s

Time = 478s

smoothSolver:  Solving for Ux, Initial residual = 1.07668e-07, Final residual = 3.91847e-09, No Iterations 2
smoothSolver:  Solving for Uy, Initial residual = 1.07668e-07, Final residual = 3.91847e-09, No Iterations 2
smoothSolver:  Solving for Uz, Initial residual = 1.04348e-08, Final residual = 1.92933e-09, No Iterations 1
GAMG:  Solving for p, Initial residual = 8.66171e-08, Final residual = 8.66171e-08, No Iterations 0
time step continuity errors : sum local = 9.24109e-07, global = -1.41316e-09, cumulative = 0.00697658
ExecutionTime = 4.58336 s  ClockTime = 5 s

Time = 479s

smoothSolver:  Solving for Ux, Initial residual = 9.93263e-08, Final residual = 3.76681e-09, No Iterations 2
smoothSolver:  Solving for Uy, Initial residual = 9.93261e-08, Final residual = 3.76681e-09, No Iterations 2
smoothSolver:  Solving for Uz, Initial residual = 9.57397e-09, Final residual = 9.57397e-09, No Iterations 0
GAMG:  Solving for p, Initial residual = 8.72532e-08, Final residual = 8.72532e-08, No Iterations 0
time step continuity errors : sum local = 9.30896e-07, global = -2.73332e-10, cumulative = 0.00697658
ExecutionTime = 4.59064 s  ClockTime = 5 s

Time = 480s

smoothSolver:  Solving for Ux, Initial residual = 6.29757e-08, Final residual = 2.32463e-09, No Iterations 2
smoothSolver:  Solving for Uy, Initial residual = 6.29755e-08, Final residual = 2.32463e-09, No Iterations 2
smoothSolver:  Solving for Uz, Initial residual = 1.13696e-08, Final residual = 2.07328e-09, No Iterations 1
GAMG:  Solving for p, Initial residual = 8.69236e-08, Final residual = 8.69236e-08, No Iterations 0
time step continuity errors : sum local = 9.27378e-07, global = -2.5182e-09, cumulative = 0.00697658
ExecutionTime = 4.59747 s  ClockTime = 5 s

Time = 481s

smoothSolver:  Solving for Ux, Initial residual = 1.06699e-07, Final residual = 3.92069e-09, No Iterations 2
smoothSolver:  Solving for Uy, Initial residual = 1.06699e-07, Final residual = 3.92069e-09, No Iterations 2
smoothSolver:  Solving for Uz, Initial residual = 1.0328e-08, Final residual = 1.91933e-09, No Iterations 1
GAMG:  Solving for p, Initial residual = 8.65879e-08, Final residual = 8.65879e-08, No Iterations 0
time step continuity errors : sum local = 9.23797e-07, global = -2.91909e-09, cumulative = 0.00697657
ExecutionTime = 4.60526 s  ClockTime = 5 s

Time = 482s

smoothSolver:  Solving for Ux, Initial residual = 9.87635e-08, Final residual = 3.74438e-09, No Iterations 2
smoothSolver:  Solving for Uy, Initial residual = 9.87633e-08, Final residual = 3.74438e-09, No Iterations 2
smoothSolver:  Solving for Uz, Initial residual = 9.53197e-09, Final residual = 9.53197e-09, No Iterations 0
GAMG:  Solving for p, Initial residual = 8.72262e-08, Final residual = 8.72262e-08, No Iterations 0
time step continuity errors : sum local = 9.30607e-07, global = -2.21938e-09, cumulative = 0.00697657
ExecutionTime = 4.61289 s  ClockTime = 5 s

Time = 483s

smoothSolver:  Solving for Ux, Initial residual = 6.24357e-08, Final residual = 2.31212e-09, No Iterations 2
smoothSolver:  Solving for Uy, Initial residual = 6.24356e-08, Final residual = 2.31212e-09, No Iterations 2
smoothSolver:  Solving for Uz, Initial residual = 1.12798e-08, Final residual = 2.04845e-09, No Iterations 1
GAMG:  Solving for p, Initial residual = 8.6911e-08, Final residual = 8.6911e-08, No Iterations 0
time step continuity errors : sum local = 9.27244e-07, global = -6.56812e-10, cumulative = 0.00697657
ExecutionTime = 4.61977 s  ClockTime = 5 s

Time = 484s

smoothSolver:  Solving for Ux, Initial residual = 1.06103e-07, Final residual = 3.88969e-09, No Iterations 2
smoothSolver:  Solving for Uy, Initial residual = 1.06102e-07, Final residual = 3.88969e-09, No Iterations 2
smoothSolver:  Solving for Uz, Initial residual = 1.02926e-08, Final residual = 1.88158e-09, No Iterations 1
GAMG:  Solving for p, Initial residual = 8.65692e-08, Final residual = 8.65692e-08, No Iterations 0
time step continuity errors : sum local = 9.23598e-07, global = -3.57595e-09, cumulative = 0.00697657
ExecutionTime = 4.62696 s  ClockTime = 5 s

Time = 485s

smoothSolver:  Solving for Ux, Initial residual = 9.84581e-08, Final residual = 3.68275e-09, No Iterations 2
smoothSolver:  Solving for Uy, Initial residual = 9.84578e-08, Final residual = 3.68275e-09, No Iterations 2
smoothSolver:  Solving for Uz, Initial residual = 9.48095e-09, Final residual = 9.48095e-09, No Iterations 0
GAMG:  Solving for p, Initial residual = 8.72187e-08, Final residual = 8.72187e-08, No Iterations 0
time step continuity errors : sum local = 9.30527e-07, global = -4.0033e-09, cumulative = 0.00697656
ExecutionTime = 4.63396 s  ClockTime = 5 s

Time = 486s

smoothSolver:  Solving for Ux, Initial residual = 6.20257e-08, Final residual = 2.29249e-09, No Iterations 2
smoothSolver:  Solving for Uy, Initial residual = 6.20256e-08, Final residual = 2.29249e-09, No Iterations 2
smoothSolver:  Solving for Uz, Initial residual = 1.12607e-08, Final residual = 2.0156e-09, No Iterations 1
GAMG:  Solving for p, Initial residual = 8.68777e-08, Final residual = 8.68777e-08, No Iterations 0
time step continuity errors : sum local = 9.26889e-07, global = -1.41169e-10, cumulative = 0.00697656
ExecutionTime = 4.64077 s  ClockTime = 5 s

Time = 487s

smoothSolver:  Solving for Ux, Initial residual = 1.05695e-07, Final residual = 3.82359e-09, No Iterations 2
smoothSolver:  Solving for Uy, Initial residual = 1.05695e-07, Final residual = 3.82359e-09, No Iterations 2
smoothSolver:  Solving for Uz, Initial residual = 1.0237e-08, Final residual = 1.88746e-09, No Iterations 1
GAMG:  Solving for p, Initial residual = 8.65514e-08, Final residual = 8.65514e-08, No Iterations 0
time step continuity errors : sum local = 9.23408e-07, global = -2.74333e-09, cumulative = 0.00697656
ExecutionTime = 4.64779 s  ClockTime = 5 s

Time = 488s

smoothSolver:  Solving for Ux, Initial residual = 9.7536e-08, Final residual = 3.66747e-09, No Iterations 2
smoothSolver:  Solving for Uy, Initial residual = 9.75357e-08, Final residual = 3.66747e-09, No Iterations 2
smoothSolver:  Solving for Uz, Initial residual = 9.38527e-09, Final residual = 9.38527e-09, No Iterations 0
GAMG:  Solving for p, Initial residual = 8.71865e-08, Final residual = 8.71865e-08, No Iterations 0
time step continuity errors : sum local = 9.30183e-07, global = -3.88609e-09, cumulative = 0.00697656
ExecutionTime = 4.6549 s  ClockTime = 5 s

Time = 489s

smoothSolver:  Solving for Ux, Initial residual = 6.1792e-08, Final residual = 2.26371e-09, No Iterations 2
smoothSolver:  Solving for Uy, Initial residual = 6.17919e-08, Final residual = 2.2637e-09, No Iterations 2
smoothSolver:  Solving for Uz, Initial residual = 1.11424e-08, Final residual = 2.02414e-09, No Iterations 1
GAMG:  Solving for p, Initial residual = 8.6822e-08, Final residual = 8.6822e-08, No Iterations 0
time step continuity errors : sum local = 9.26295e-07, global = -1.47088e-09, cumulative = 0.00697655
ExecutionTime = 4.66315 s  ClockTime = 5 s

Time = 490s

smoothSolver:  Solving for Ux, Initial residual = 1.04619e-07, Final residual = 3.81082e-09, No Iterations 2
smoothSolver:  Solving for Uy, Initial residual = 1.04618e-07, Final residual = 3.81082e-09, No Iterations 2
smoothSolver:  Solving for Uz, Initial residual = 1.01078e-08, Final residual = 1.87676e-09, No Iterations 1
GAMG:  Solving for p, Initial residual = 8.65341e-08, Final residual = 8.65341e-08, No Iterations 0
time step continuity errors : sum local = 9.23223e-07, global = -1.2345e-09, cumulative = 0.00697655
ExecutionTime = 4.67047 s  ClockTime = 5 s

Time = 491s

smoothSolver:  Solving for Ux, Initial residual = 9.66618e-08, Final residual = 3.6413e-09, No Iterations 2
smoothSolver:  Solving for Uy, Initial residual = 9.66615e-08, Final residual = 3.64129e-09, No Iterations 2
smoothSolver:  Solving for Uz, Initial residual = 9.32961e-09, Final residual = 9.32961e-09, No Iterations 0
GAMG:  Solving for p, Initial residual = 8.71448e-08, Final residual = 8.71448e-08, No Iterations 0
time step continuity errors : sum local = 9.29739e-07, global = -1.98676e-09, cumulative = 0.00697655
ExecutionTime = 4.67796 s  ClockTime = 5 s

Time = 492s

smoothSolver:  Solving for Ux, Initial residual = 6.12011e-08, Final residual = 2.24694e-09, No Iterations 2
smoothSolver:  Solving for Uy, Initial residual = 6.1201e-08, Final residual = 2.24694e-09, No Iterations 2
smoothSolver:  Solving for Uz, Initial residual = 1.10209e-08, Final residual = 2.00243e-09, No Iterations 1
GAMG:  Solving for p, Initial residual = 8.67924e-08, Final residual = 8.67924e-08, No Iterations 0
time step continuity errors : sum local = 9.25979e-07, global = -3.35088e-09, cumulative = 0.00697655
ExecutionTime = 4.68563 s  ClockTime = 5 s

Time = 493s

smoothSolver:  Solving for Ux, Initial residual = 1.03753e-07, Final residual = 3.77461e-09, No Iterations 2
smoothSolver:  Solving for Uy, Initial residual = 1.03753e-07, Final residual = 3.77461e-09, No Iterations 2
smoothSolver:  Solving for Uz, Initial residual = 1.00691e-08, Final residual = 1.83377e-09, No Iterations 1
GAMG:  Solving for p, Initial residual = 8.6496e-08, Final residual = 8.6496e-08, No Iterations 0
time step continuity errors : sum local = 9.22817e-07, global = -5.11414e-10, cumulative = 0.00697655
ExecutionTime = 4.69265 s  ClockTime = 5 s

Time = 494s

smoothSolver:  Solving for Ux, Initial residual = 9.59352e-08, Final residual = 3.57127e-09, No Iterations 2
smoothSolver:  Solving for Uy, Initial residual = 9.59349e-08, Final residual = 3.57126e-09, No Iterations 2
smoothSolver:  Solving for Uz, Initial residual = 9.23907e-09, Final residual = 9.23907e-09, No Iterations 0
GAMG:  Solving for p, Initial residual = 8.71444e-08, Final residual = 8.71444e-08, No Iterations 0
time step continuity errors : sum local = 9.29734e-07, global = -1.48847e-10, cumulative = 0.00697655
ExecutionTime = 4.69932 s  ClockTime = 5 s

Time = 495s

smoothSolver:  Solving for Ux, Initial residual = 6.06414e-08, Final residual = 2.22516e-09, No Iterations 2
smoothSolver:  Solving for Uy, Initial residual = 6.06413e-08, Final residual = 2.22516e-09, No Iterations 2
smoothSolver:  Solving for Uz, Initial residual = 1.10105e-08, Final residual = 1.96054e-09, No Iterations 1
GAMG:  Solving for p, Initial residual = 8.67743e-08, Final residual = 8.67743e-08, No Iterations 0
time step continuity errors : sum local = 9.25786e-07, global = -3.9658e-09, cumulative = 0.00697654
ExecutionTime = 4.70646 s  ClockTime = 5 s

Time = 496s

smoothSolver:  Solving for Ux, Initial residual = 1.0305e-07, Final residual = 3.70934e-09, No Iterations 2
smoothSolver:  Solving for Uy, Initial residual = 1.0305e-07, Final residual = 3.70934e-09, No Iterations 2
smoothSolver:  Solving for Uz, Initial residual = 9.97163e-09, Final residual = 9.97163e-09, No Iterations 0
GAMG:  Solving for p, Initial residual = 8.74601e-08, Final residual = 8.74601e-08, No Iterations 0
time step continuity errors : sum local = 9.33103e-07, global = -4.38488e-09, cumulative = 0.00697654
ExecutionTime = 4.71327 s  ClockTime = 5 s

Time = 497s

smoothSolver:  Solving for Ux, Initial residual = 6.53145e-08, Final residual = 2.36998e-09, No Iterations 2
smoothSolver:  Solving for Uy, Initial residual = 6.53144e-08, Final residual = 2.36998e-09, No Iterations 2
smoothSolver:  Solving for Uz, Initial residual = 1.18846e-08, Final residual = 2.0945e-09, No Iterations 1
GAMG:  Solving for p, Initial residual = 8.70868e-08, Final residual = 8.70868e-08, No Iterations 0
time step continuity errors : sum local = 9.2912e-07, global = 2.27243e-10, cumulative = 0.00697654
ExecutionTime = 4.72011 s  ClockTime = 5 s

Time = 498s

smoothSolver:  Solving for Ux, Initial residual = 1.09968e-07, Final residual = 3.92002e-09, No Iterations 2
smoothSolver:  Solving for Uy, Initial residual = 1.09968e-07, Final residual = 3.92002e-09, No Iterations 2
smoothSolver:  Solving for Uz, Initial residual = 1.07111e-08, Final residual = 1.95463e-09, No Iterations 1
GAMG:  Solving for p, Initial residual = 8.67172e-08, Final residual = 8.67172e-08, No Iterations 0
time step continuity errors : sum local = 9.25177e-07, global = -2.92407e-09, cumulative = 0.00697654
ExecutionTime = 4.72722 s  ClockTime = 5 s

Time = 499s

smoothSolver:  Solving for Ux, Initial residual = 1.00698e-07, Final residual = 3.74897e-09, No Iterations 2
smoothSolver:  Solving for Uy, Initial residual = 1.00698e-07, Final residual = 3.74896e-09, No Iterations 2
smoothSolver:  Solving for Uz, Initial residual = 9.76175e-09, Final residual = 9.76175e-09, No Iterations 0
GAMG:  Solving for p, Initial residual = 8.74e-08, Final residual = 8.74e-08, No Iterations 0
time step continuity errors : sum local = 9.32462e-07, global = -4.22966e-09, cumulative = 0.00697653
ExecutionTime = 4.73404 s  ClockTime = 5 s

Time = 500s

smoothSolver:  Solving for Ux, Initial residual = 6.41171e-08, Final residual = 2.32228e-09, No Iterations 2
smoothSolver:  Solving for Uy, Initial residual = 6.4117e-08, Final residual = 2.32228e-09, No Iterations 2
smoothSolver:  Solving for Uz, Initial residual = 1.16382e-08, Final residual = 2.09066e-09, No Iterations 1
GAMG:  Solving for p, Initial residual = 8.69991e-08, Final residual = 8.69991e-08, No Iterations 0
time step continuity errors : sum local = 9.28184e-07, global = -1.27742e-09, cumulative = 0.00697653
ExecutionTime = 4.76286 s  ClockTime = 5 s

End

